REMARK  Name = ../refined-set-2016/4heg/4heg_pocket.pdb
REMARK  221 active torsions:
REMARK  status: ('A' for Active; 'I' for Inactive)
REMARK    1  A    between atoms: _1  and  _3
REMARK    2  A    between atoms: _3  and  _4
REMARK    3  A    between atoms: _3  and  _6
REMARK    4  A    between atoms: _6  and  _7
REMARK    5  A    between atoms: _7  and  _8
REMARK    6  A    between atoms: _13  and  _15
REMARK    7  A    between atoms: _15  and  _16
REMARK    8  A    between atoms: _15  and  _18
REMARK    9  A    between atoms: _18  and  _19
REMARK   10  A    between atoms: _22  and  _24
REMARK   11  A    between atoms: _24  and  _25
REMARK   12  A    between atoms: _24  and  _27
REMARK   13  A    between atoms: _27  and  _28
REMARK   14  A    between atoms: _31  and  _33
REMARK   15  A    between atoms: _33  and  _34
REMARK   16  A    between atoms: _33  and  _36
REMARK   17  A    between atoms: _36  and  _37
REMARK   18  A    between atoms: _40  and  _42
REMARK   19  A    between atoms: _42  and  _43
REMARK   20  A    between atoms: _42  and  _45
REMARK   21  A    between atoms: _45  and  _46
REMARK   22  A    between atoms: _49  and  _51
REMARK   23  A    between atoms: _51  and  _52
REMARK   24  A    between atoms: _54  and  _56
REMARK   25  A    between atoms: _56  and  _57
REMARK   26  A    between atoms: _60  and  _62
REMARK   27  A    between atoms: _62  and  _63
REMARK   28  A    between atoms: _62  and  _65
REMARK   29  A    between atoms: _65  and  _66
REMARK   30  A    between atoms: _69  and  _71
REMARK   31  A    between atoms: _71  and  _72
REMARK   32  A    between atoms: _71  and  _74
REMARK   33  A    between atoms: _74  and  _75
REMARK   34  A    between atoms: _78  and  _80
REMARK   35  A    between atoms: _80  and  _81
REMARK   36  A    between atoms: _80  and  _83
REMARK   37  A    between atoms: _83  and  _84
REMARK   38  A    between atoms: _87  and  _89
REMARK   39  A    between atoms: _89  and  _90
REMARK   40  A    between atoms: _89  and  _92
REMARK   41  A    between atoms: _95  and  _97
REMARK   42  A    between atoms: _97  and  _98
REMARK   43  A    between atoms: _97  and  _100
REMARK   44  A    between atoms: _100  and  _101
REMARK   45  A    between atoms: _101  and  _102
REMARK   46  A    between atoms: _102  and  _103
REMARK   47  A    between atoms: _103  and  _104
REMARK   48  A    between atoms: _108  and  _110
REMARK   49  A    between atoms: _110  and  _111
REMARK   50  A    between atoms: _110  and  _113
REMARK   51  A    between atoms: _113  and  _114
REMARK   52  A    between atoms: _114  and  _115
REMARK   53  A    between atoms: _117  and  _119
REMARK   54  A    between atoms: _119  and  _120
REMARK   55  A    between atoms: _119  and  _122
REMARK   56  A    between atoms: _122  and  _123
REMARK   57  A    between atoms: _126  and  _128
REMARK   58  A    between atoms: _128  and  _129
REMARK   59  A    between atoms: _131  and  _133
REMARK   60  A    between atoms: _133  and  _134
REMARK   61  A    between atoms: _136  and  _138
REMARK   62  A    between atoms: _138  and  _139
REMARK   63  A    between atoms: _138  and  _141
REMARK   64  A    between atoms: _141  and  _142
REMARK   65  A    between atoms: _145  and  _147
REMARK   66  A    between atoms: _147  and  _148
REMARK   67  A    between atoms: _150  and  _152
REMARK   68  A    between atoms: _152  and  _153
REMARK   69  A    between atoms: _155  and  _157
REMARK   70  A    between atoms: _157  and  _158
REMARK   71  A    between atoms: _157  and  _160
REMARK   72  A    between atoms: _160  and  _161
REMARK   73  A    between atoms: _167  and  _169
REMARK   74  A    between atoms: _169  and  _170
REMARK   75  A    between atoms: _169  and  _172
REMARK   76  A    between atoms: _172  and  _173
REMARK   77  A    between atoms: _176  and  _178
REMARK   78  A    between atoms: _178  and  _179
REMARK   79  A    between atoms: _178  and  _181
REMARK   80  A    between atoms: _181  and  _182
REMARK   81  A    between atoms: _185  and  _187
REMARK   82  A    between atoms: _187  and  _188
REMARK   83  A    between atoms: _187  and  _190
REMARK   84  A    between atoms: _190  and  _191
REMARK   85  A    between atoms: _195  and  _196
REMARK   86  A    between atoms: _201  and  _203
REMARK   87  A    between atoms: _203  and  _204
REMARK   88  A    between atoms: _203  and  _206
REMARK   89  A    between atoms: _209  and  _211
REMARK   90  A    between atoms: _211  and  _212
REMARK   91  A    between atoms: _211  and  _214
REMARK   92  A    between atoms: _214  and  _215
REMARK   93  A    between atoms: _220  and  _222
REMARK   94  A    between atoms: _222  and  _223
REMARK   95  A    between atoms: _222  and  _225
REMARK   96  A    between atoms: _225  and  _226
REMARK   97  A    between atoms: _229  and  _231
REMARK   98  A    between atoms: _231  and  _232
REMARK   99  A    between atoms: _231  and  _234
REMARK  100  A    between atoms: _234  and  _235
REMARK  101  A    between atoms: _238  and  _240
REMARK  102  A    between atoms: _240  and  _241
REMARK  103  A    between atoms: _243  and  _245
REMARK  104  A    between atoms: _245  and  _246
REMARK  105  A    between atoms: _245  and  _248
REMARK  106  A    between atoms: _248  and  _249
REMARK  107  A    between atoms: _249  and  _250
REMARK  108  A    between atoms: _250  and  _251
REMARK  109  A    between atoms: _260  and  _262
REMARK  110  A    between atoms: _262  and  _263
REMARK  111  A    between atoms: _262  and  _265
REMARK  112  A    between atoms: _265  and  _266
REMARK  113  A    between atoms: _271  and  _273
REMARK  114  A    between atoms: _273  and  _274
REMARK  115  A    between atoms: _273  and  _276
REMARK  116  A    between atoms: _276  and  _277
REMARK  117  A    between atoms: _277  and  _278
REMARK  118  A    between atoms: _283  and  _285
REMARK  119  A    between atoms: _285  and  _286
REMARK  120  A    between atoms: _285  and  _288
REMARK  121  A    between atoms: _288  and  _289
REMARK  122  A    between atoms: _292  and  _294
REMARK  123  A    between atoms: _294  and  _295
REMARK  124  A    between atoms: _294  and  _297
REMARK  125  A    between atoms: _297  and  _298
REMARK  126  A    between atoms: _301  and  _303
REMARK  127  A    between atoms: _303  and  _304
REMARK  128  A    between atoms: _303  and  _306
REMARK  129  A    between atoms: _306  and  _307
REMARK  130  A    between atoms: _310  and  _312
REMARK  131  A    between atoms: _312  and  _313
REMARK  132  A    between atoms: _312  and  _315
REMARK  133  A    between atoms: _315  and  _316
REMARK  134  A    between atoms: _319  and  _321
REMARK  135  A    between atoms: _321  and  _322
REMARK  136  A    between atoms: _324  and  _326
REMARK  137  A    between atoms: _326  and  _327
REMARK  138  A    between atoms: _330  and  _332
REMARK  139  A    between atoms: _332  and  _333
REMARK  140  A    between atoms: _332  and  _335
REMARK  141  A    between atoms: _335  and  _336
REMARK  142  A    between atoms: _339  and  _341
REMARK  143  A    between atoms: _341  and  _342
REMARK  144  A    between atoms: _341  and  _344
REMARK  145  A    between atoms: _344  and  _345
REMARK  146  A    between atoms: _348  and  _350
REMARK  147  A    between atoms: _350  and  _351
REMARK  148  A    between atoms: _350  and  _353
REMARK  149  A    between atoms: _353  and  _354
REMARK  150  A    between atoms: _357  and  _359
REMARK  151  A    between atoms: _359  and  _360
REMARK  152  A    between atoms: _359  and  _362
REMARK  153  A    between atoms: _365  and  _367
REMARK  154  A    between atoms: _367  and  _368
REMARK  155  A    between atoms: _367  and  _370
REMARK  156  A    between atoms: _370  and  _371
REMARK  157  A    between atoms: _371  and  _372
REMARK  158  A    between atoms: _372  and  _373
REMARK  159  A    between atoms: _373  and  _374
REMARK  160  A    between atoms: _378  and  _380
REMARK  161  A    between atoms: _380  and  _381
REMARK  162  A    between atoms: _380  and  _383
REMARK  163  A    between atoms: _383  and  _384
REMARK  164  A    between atoms: _384  and  _385
REMARK  165  A    between atoms: _387  and  _389
REMARK  166  A    between atoms: _389  and  _390
REMARK  167  A    between atoms: _389  and  _392
REMARK  168  A    between atoms: _392  and  _393
REMARK  169  A    between atoms: _396  and  _398
REMARK  170  A    between atoms: _398  and  _399
REMARK  171  A    between atoms: _401  and  _403
REMARK  172  A    between atoms: _403  and  _404
REMARK  173  A    between atoms: _406  and  _408
REMARK  174  A    between atoms: _408  and  _409
REMARK  175  A    between atoms: _408  and  _411
REMARK  176  A    between atoms: _411  and  _412
REMARK  177  A    between atoms: _415  and  _417
REMARK  178  A    between atoms: _417  and  _418
REMARK  179  A    between atoms: _420  and  _422
REMARK  180  A    between atoms: _422  and  _423
REMARK  181  A    between atoms: _425  and  _427
REMARK  182  A    between atoms: _427  and  _428
REMARK  183  A    between atoms: _427  and  _430
REMARK  184  A    between atoms: _430  and  _431
REMARK  185  A    between atoms: _434  and  _436
REMARK  186  A    between atoms: _436  and  _437
REMARK  187  A    between atoms: _436  and  _439
REMARK  188  A    between atoms: _439  and  _440
REMARK  189  A    between atoms: _444  and  _445
REMARK  190  A    between atoms: _450  and  _452
REMARK  191  A    between atoms: _452  and  _453
REMARK  192  A    between atoms: _452  and  _455
REMARK  193  A    between atoms: _455  and  _456
REMARK  194  A    between atoms: _460  and  _461
REMARK  195  A    between atoms: _466  and  _468
REMARK  196  A    between atoms: _468  and  _469
REMARK  197  A    between atoms: _468  and  _471
REMARK  198  A    between atoms: _474  and  _476
REMARK  199  A    between atoms: _476  and  _477
REMARK  200  A    between atoms: _476  and  _479
REMARK  201  A    between atoms: _479  and  _480
REMARK  202  A    between atoms: _485  and  _487
REMARK  203  A    between atoms: _487  and  _488
REMARK  204  A    between atoms: _487  and  _490
REMARK  205  A    between atoms: _490  and  _491
REMARK  206  A    between atoms: _494  and  _496
REMARK  207  A    between atoms: _496  and  _497
REMARK  208  A    between atoms: _496  and  _499
REMARK  209  A    between atoms: _499  and  _500
REMARK  210  A    between atoms: _503  and  _505
REMARK  211  A    between atoms: _505  and  _506
REMARK  212  A    between atoms: _508  and  _510
REMARK  213  A    between atoms: _510  and  _511
REMARK  214  A    between atoms: _510  and  _513
REMARK  215  A    between atoms: _513  and  _514
REMARK  216  A    between atoms: _514  and  _515
REMARK  217  A    between atoms: _515  and  _516
REMARK  218  A    between atoms: _525  and  _527
REMARK  219  A    between atoms: _527  and  _528
REMARK  220  A    between atoms: _527  and  _530
REMARK  221  A    between atoms: _530  and  _531
REMARK                            x       y       z     vdW  Elec       q    Type
REMARK                         _______ _______ _______ _____ _____    ______ ____
ROOT
ATOM      1  CB  GLN A   1     -24.594 -19.167  15.709  0.00  0.00    +0.035 C 
ENDROOT
BRANCH   1   2
ATOM      2  CA  GLN A   1     -25.247 -18.357  16.831  0.00  0.00    +0.134 C 
BRANCH   2   3
ATOM      3  N   GLN A   1     -26.446 -19.061  17.290  0.00  0.00    -0.239 NA
ATOM      4  H   GLN A   1     -26.751 -19.949  16.843  0.00  0.00    +0.142 HD
ENDBRANCH   2   3
BRANCH   2   5
ATOM      5  C   GLN A   1     -25.577 -16.963  16.331  0.00  0.00    +0.224 C 
ATOM      6  O   GLN A   1     -26.579 -16.817  15.618  0.00  0.00    -0.287 OA
ENDBRANCH   2   5
ENDBRANCH   1   2
BRANCH   1   7
ATOM      7  CG  GLN A   1     -24.239 -20.570  16.150  0.00  0.00    +0.087 C 
BRANCH   7   8
ATOM      8  CD  GLN A   1     -23.685 -21.411  15.010  0.00  0.00    +0.219 C 
ATOM      9  NE2 GLN A   1     -22.990 -22.495  15.319  0.00  0.00    -0.329 N 
ATOM     10 HE21 GLN A   1     -22.839 -22.749  16.316  0.00  0.00    +0.145 HD
ATOM     11 HE22 GLN A   1     -22.596 -23.092  14.565  0.00  0.00    +0.145 HD
ATOM     12  OE1 GLN A   1     -23.897 -21.060  13.849  0.00  0.00    -0.275 OA
ENDBRANCH   7   8
ENDBRANCH   1   7
TORSDOF 5
REMARK  Name = ../refined-set-2016/4heg/4heg_pocket.pdb
REMARK  221 active torsions:
REMARK  status: ('A' for Active; 'I' for Inactive)
REMARK    1  A    between atoms: _1  and  _3
REMARK    2  A    between atoms: _3  and  _4
REMARK    3  A    between atoms: _3  and  _6
REMARK    4  A    between atoms: _6  and  _7
REMARK    5  A    between atoms: _7  and  _8
REMARK    6  A    between atoms: _13  and  _15
REMARK    7  A    between atoms: _15  and  _16
REMARK    8  A    between atoms: _15  and  _18
REMARK    9  A    between atoms: _18  and  _19
REMARK   10  A    between atoms: _22  and  _24
REMARK   11  A    between atoms: _24  and  _25
REMARK   12  A    between atoms: _24  and  _27
REMARK   13  A    between atoms: _27  and  _28
REMARK   14  A    between atoms: _31  and  _33
REMARK   15  A    between atoms: _33  and  _34
REMARK   16  A    between atoms: _33  and  _36
REMARK   17  A    between atoms: _36  and  _37
REMARK   18  A    between atoms: _40  and  _42
REMARK   19  A    between atoms: _42  and  _43
REMARK   20  A    between atoms: _42  and  _45
REMARK   21  A    between atoms: _45  and  _46
REMARK   22  A    between atoms: _49  and  _51
REMARK   23  A    between atoms: _51  and  _52
REMARK   24  A    between atoms: _54  and  _56
REMARK   25  A    between atoms: _56  and  _57
REMARK   26  A    between atoms: _60  and  _62
REMARK   27  A    between atoms: _62  and  _63
REMARK   28  A    between atoms: _62  and  _65
REMARK   29  A    between atoms: _65  and  _66
REMARK   30  A    between atoms: _69  and  _71
REMARK   31  A    between atoms: _71  and  _72
REMARK   32  A    between atoms: _71  and  _74
REMARK   33  A    between atoms: _74  and  _75
REMARK   34  A    between atoms: _78  and  _80
REMARK   35  A    between atoms: _80  and  _81
REMARK   36  A    between atoms: _80  and  _83
REMARK   37  A    between atoms: _83  and  _84
REMARK   38  A    between atoms: _87  and  _89
REMARK   39  A    between atoms: _89  and  _90
REMARK   40  A    between atoms: _89  and  _92
REMARK   41  A    between atoms: _95  and  _97
REMARK   42  A    between atoms: _97  and  _98
REMARK   43  A    between atoms: _97  and  _100
REMARK   44  A    between atoms: _100  and  _101
REMARK   45  A    between atoms: _101  and  _102
REMARK   46  A    between atoms: _102  and  _103
REMARK   47  A    between atoms: _103  and  _104
REMARK   48  A    between atoms: _108  and  _110
REMARK   49  A    between atoms: _110  and  _111
REMARK   50  A    between atoms: _110  and  _113
REMARK   51  A    between atoms: _113  and  _114
REMARK   52  A    between atoms: _114  and  _115
REMARK   53  A    between atoms: _117  and  _119
REMARK   54  A    between atoms: _119  and  _120
REMARK   55  A    between atoms: _119  and  _122
REMARK   56  A    between atoms: _122  and  _123
REMARK   57  A    between atoms: _126  and  _128
REMARK   58  A    between atoms: _128  and  _129
REMARK   59  A    between atoms: _131  and  _133
REMARK   60  A    between atoms: _133  and  _134
REMARK   61  A    between atoms: _136  and  _138
REMARK   62  A    between atoms: _138  and  _139
REMARK   63  A    between atoms: _138  and  _141
REMARK   64  A    between atoms: _141  and  _142
REMARK   65  A    between atoms: _145  and  _147
REMARK   66  A    between atoms: _147  and  _148
REMARK   67  A    between atoms: _150  and  _152
REMARK   68  A    between atoms: _152  and  _153
REMARK   69  A    between atoms: _155  and  _157
REMARK   70  A    between atoms: _157  and  _158
REMARK   71  A    between atoms: _157  and  _160
REMARK   72  A    between atoms: _160  and  _161
REMARK   73  A    between atoms: _167  and  _169
REMARK   74  A    between atoms: _169  and  _170
REMARK   75  A    between atoms: _169  and  _172
REMARK   76  A    between atoms: _172  and  _173
REMARK   77  A    between atoms: _176  and  _178
REMARK   78  A    between atoms: _178  and  _179
REMARK   79  A    between atoms: _178  and  _181
REMARK   80  A    between atoms: _181  and  _182
REMARK   81  A    between atoms: _185  and  _187
REMARK   82  A    between atoms: _187  and  _188
REMARK   83  A    between atoms: _187  and  _190
REMARK   84  A    between atoms: _190  and  _191
REMARK   85  A    between atoms: _195  and  _196
REMARK   86  A    between atoms: _201  and  _203
REMARK   87  A    between atoms: _203  and  _204
REMARK   88  A    between atoms: _203  and  _206
REMARK   89  A    between atoms: _209  and  _211
REMARK   90  A    between atoms: _211  and  _212
REMARK   91  A    between atoms: _211  and  _214
REMARK   92  A    between atoms: _214  and  _215
REMARK   93  A    between atoms: _220  and  _222
REMARK   94  A    between atoms: _222  and  _223
REMARK   95  A    between atoms: _222  and  _225
REMARK   96  A    between atoms: _225  and  _226
REMARK   97  A    between atoms: _229  and  _231
REMARK   98  A    between atoms: _231  and  _232
REMARK   99  A    between atoms: _231  and  _234
REMARK  100  A    between atoms: _234  and  _235
REMARK  101  A    between atoms: _238  and  _240
REMARK  102  A    between atoms: _240  and  _241
REMARK  103  A    between atoms: _243  and  _245
REMARK  104  A    between atoms: _245  and  _246
REMARK  105  A    between atoms: _245  and  _248
REMARK  106  A    between atoms: _248  and  _249
REMARK  107  A    between atoms: _249  and  _250
REMARK  108  A    between atoms: _250  and  _251
REMARK  109  A    between atoms: _260  and  _262
REMARK  110  A    between atoms: _262  and  _263
REMARK  111  A    between atoms: _262  and  _265
REMARK  112  A    between atoms: _265  and  _266
REMARK  113  A    between atoms: _271  and  _273
REMARK  114  A    between atoms: _273  and  _274
REMARK  115  A    between atoms: _273  and  _276
REMARK  116  A    between atoms: _276  and  _277
REMARK  117  A    between atoms: _277  and  _278
REMARK  118  A    between atoms: _283  and  _285
REMARK  119  A    between atoms: _285  and  _286
REMARK  120  A    between atoms: _285  and  _288
REMARK  121  A    between atoms: _288  and  _289
REMARK  122  A    between atoms: _292  and  _294
REMARK  123  A    between atoms: _294  and  _295
REMARK  124  A    between atoms: _294  and  _297
REMARK  125  A    between atoms: _297  and  _298
REMARK  126  A    between atoms: _301  and  _303
REMARK  127  A    between atoms: _303  and  _304
REMARK  128  A    between atoms: _303  and  _306
REMARK  129  A    between atoms: _306  and  _307
REMARK  130  A    between atoms: _310  and  _312
REMARK  131  A    between atoms: _312  and  _313
REMARK  132  A    between atoms: _312  and  _315
REMARK  133  A    between atoms: _315  and  _316
REMARK  134  A    between atoms: _319  and  _321
REMARK  135  A    between atoms: _321  and  _322
REMARK  136  A    between atoms: _324  and  _326
REMARK  137  A    between atoms: _326  and  _327
REMARK  138  A    between atoms: _330  and  _332
REMARK  139  A    between atoms: _332  and  _333
REMARK  140  A    between atoms: _332  and  _335
REMARK  141  A    between atoms: _335  and  _336
REMARK  142  A    between atoms: _339  and  _341
REMARK  143  A    between atoms: _341  and  _342
REMARK  144  A    between atoms: _341  and  _344
REMARK  145  A    between atoms: _344  and  _345
REMARK  146  A    between atoms: _348  and  _350
REMARK  147  A    between atoms: _350  and  _351
REMARK  148  A    between atoms: _350  and  _353
REMARK  149  A    between atoms: _353  and  _354
REMARK  150  A    between atoms: _357  and  _359
REMARK  151  A    between atoms: _359  and  _360
REMARK  152  A    between atoms: _359  and  _362
REMARK  153  A    between atoms: _365  and  _367
REMARK  154  A    between atoms: _367  and  _368
REMARK  155  A    between atoms: _367  and  _370
REMARK  156  A    between atoms: _370  and  _371
REMARK  157  A    between atoms: _371  and  _372
REMARK  158  A    between atoms: _372  and  _373
REMARK  159  A    between atoms: _373  and  _374
REMARK  160  A    between atoms: _378  and  _380
REMARK  161  A    between atoms: _380  and  _381
REMARK  162  A    between atoms: _380  and  _383
REMARK  163  A    between atoms: _383  and  _384
REMARK  164  A    between atoms: _384  and  _385
REMARK  165  A    between atoms: _387  and  _389
REMARK  166  A    between atoms: _389  and  _390
REMARK  167  A    between atoms: _389  and  _392
REMARK  168  A    between atoms: _392  and  _393
REMARK  169  A    between atoms: _396  and  _398
REMARK  170  A    between atoms: _398  and  _399
REMARK  171  A    between atoms: _401  and  _403
REMARK  172  A    between atoms: _403  and  _404
REMARK  173  A    between atoms: _406  and  _408
REMARK  174  A    between atoms: _408  and  _409
REMARK  175  A    between atoms: _408  and  _411
REMARK  176  A    between atoms: _411  and  _412
REMARK  177  A    between atoms: _415  and  _417
REMARK  178  A    between atoms: _417  and  _418
REMARK  179  A    between atoms: _420  and  _422
REMARK  180  A    between atoms: _422  and  _423
REMARK  181  A    between atoms: _425  and  _427
REMARK  182  A    between atoms: _427  and  _428
REMARK  183  A    between atoms: _427  and  _430
REMARK  184  A    between atoms: _430  and  _431
REMARK  185  A    between atoms: _434  and  _436
REMARK  186  A    between atoms: _436  and  _437
REMARK  187  A    between atoms: _436  and  _439
REMARK  188  A    between atoms: _439  and  _440
REMARK  189  A    between atoms: _444  and  _445
REMARK  190  A    between atoms: _450  and  _452
REMARK  191  A    between atoms: _452  and  _453
REMARK  192  A    between atoms: _452  and  _455
REMARK  193  A    between atoms: _455  and  _456
REMARK  194  A    between atoms: _460  and  _461
REMARK  195  A    between atoms: _466  and  _468
REMARK  196  A    between atoms: _468  and  _469
REMARK  197  A    between atoms: _468  and  _471
REMARK  198  A    between atoms: _474  and  _476
REMARK  199  A    between atoms: _476  and  _477
REMARK  200  A    between atoms: _476  and  _479
REMARK  201  A    between atoms: _479  and  _480
REMARK  202  A    between atoms: _485  and  _487
REMARK  203  A    between atoms: _487  and  _488
REMARK  204  A    between atoms: _487  and  _490
REMARK  205  A    between atoms: _490  and  _491
REMARK  206  A    between atoms: _494  and  _496
REMARK  207  A    between atoms: _496  and  _497
REMARK  208  A    between atoms: _496  and  _499
REMARK  209  A    between atoms: _499  and  _500
REMARK  210  A    between atoms: _503  and  _505
REMARK  211  A    between atoms: _505  and  _506
REMARK  212  A    between atoms: _508  and  _510
REMARK  213  A    between atoms: _510  and  _511
REMARK  214  A    between atoms: _510  and  _513
REMARK  215  A    between atoms: _513  and  _514
REMARK  216  A    between atoms: _514  and  _515
REMARK  217  A    between atoms: _515  and  _516
REMARK  218  A    between atoms: _525  and  _527
REMARK  219  A    between atoms: _527  and  _528
REMARK  220  A    between atoms: _527  and  _530
REMARK  221  A    between atoms: _530  and  _531
REMARK                            x       y       z     vdW  Elec       q    Type
REMARK                         _______ _______ _______ _____ _____    ______ ____
ROOT
ATOM      1  C   GLY A   5     -12.224 -14.910  19.792  0.00  0.00    +0.243 C 
ATOM      2  O   GLY A   5     -11.186 -15.557  19.898  0.00  0.00    -0.273 OA
ATOM      3  N   ALA A   6     -12.450 -14.175  18.713  0.00  0.00    -0.297 N 
ATOM      4  H   ALA A   6     -13.339 -13.637  18.680  0.00  0.00    +0.150 HD
ENDROOT
BRANCH   3   5
ATOM      5  CA  ALA A   6     -11.563 -14.060  17.579  0.00  0.00    +0.149 C 
ATOM      6  CB  ALA A   6     -12.339 -14.219  16.274  0.00  0.00    +0.031 C 
BRANCH   5   7
ATOM      7  C   ALA A   6     -10.877 -12.697  17.570  0.00  0.00    +0.241 C 
ATOM      8  N   ASP A   7      -9.564 -12.681  17.635  0.00  0.00    -0.297 N 
ATOM      9  H   ASP A   7      -9.041 -13.571  17.762  0.00  0.00    +0.150 HD
ATOM     10  O   ALA A   6     -11.542 -11.672  17.511  0.00  0.00    -0.273 OA
BRANCH   8  11
ATOM     11  CA  ASP A   7      -8.836 -11.420  17.530  0.00  0.00    +0.160 C 
BRANCH  11  12
ATOM     12  C   ASP A   7      -9.057 -10.783  16.157  0.00  0.00    +0.241 C 
ATOM     13  O   ASP A   7      -9.158  -9.562  16.040  0.00  0.00    -0.273 OA
ATOM     14  N   ASP A   8      -9.059 -11.622  15.139  0.00  0.00    -0.297 N 
ATOM     15  H   ASP A   8      -9.080 -12.639  15.356  0.00  0.00    +0.150 HD
BRANCH  14  16
ATOM     16  CA  ASP A   8      -9.034 -11.238  13.741  0.00  0.00    +0.160 C 
BRANCH  16  17
ATOM     17  C   ASP A   8     -10.299 -11.686  13.010  0.00  0.00    +0.241 C 
ATOM     18  O   ASP A   8     -10.972 -12.634  13.446  0.00  0.00    -0.273 OA
ATOM     19  N   THR A   9     -10.616 -11.054  11.910  0.00  0.00    -0.295 N 
ATOM     20  H   THR A   9     -10.033 -10.228  11.664  0.00  0.00    +0.150 HD
BRANCH  19  21
ATOM     21  CA  THR A   9     -11.696 -11.382  10.994  0.00  0.00    +0.176 C 
BRANCH  21  22
ATOM     22  C   THR A   9     -11.171 -12.331   9.921  0.00  0.00    +0.243 C 
ATOM     23  N   VAL A  10     -11.845 -13.456   9.731  0.00  0.00    -0.298 N 
ATOM     24  H   VAL A  10     -12.740 -13.579  10.246  0.00  0.00    +0.150 HD
ATOM     25  O   THR A   9     -10.144 -12.030   9.304  0.00  0.00    -0.273 OA
BRANCH  23  26
ATOM     26  CA  VAL A  10     -11.414 -14.534   8.847  0.00  0.00    +0.137 C 
BRANCH  26  27
ATOM     27  CB  VAL A  10     -10.911 -15.755   9.643  0.00  0.00    +0.026 C 
ATOM     28  CG2 VAL A  10     -10.068 -15.348  10.841  0.00  0.00    +0.002 C 
ATOM     29  CG1 VAL A  10     -10.092 -16.593   8.682  0.00  0.00    +0.002 C 
ENDBRANCH  26  27
BRANCH  26  30
ATOM     30  C   VAL A  10     -12.589 -14.923   7.961  0.00  0.00    +0.227 C 
ATOM     31  O   VAL A  10     -13.670 -15.296   8.421  0.00  0.00    -0.286 OA
ENDBRANCH  26  30
ENDBRANCH  23  26
ENDBRANCH  21  22
BRANCH  21  32
ATOM     32  CB  THR A   9     -12.249 -10.081  10.381  0.00  0.00    +0.137 C 
ATOM     33  CG2 THR A   9     -13.283 -10.330   9.299  0.00  0.00    +0.034 C 
BRANCH  32  34
ATOM     34  OG1 THR A   9     -12.819  -9.342  11.471  0.00  0.00    -0.382 OA
ATOM     35  HG1 THR A   9     -12.117  -9.152  12.142  0.00  0.00    +0.210 HD
ENDBRANCH  32  34
ENDBRANCH  21  32
ENDBRANCH  19  21
ENDBRANCH  16  17
BRANCH  16  36
ATOM     36  CB  ASP A   8      -7.826 -11.917  13.105  0.00  0.00    +0.143 C 
BRANCH  36  37
ATOM     37  CG  ASP A   8      -6.495 -11.484  13.689  0.00  0.00    +0.367 C 
ATOM     38  OD2 ASP A   8      -6.307 -10.362  14.180  0.00  0.00    -0.246 OA
ATOM     39  OD1 ASP A   8      -5.535 -12.294  13.651  0.00  0.00    -0.246 OA
ENDBRANCH  36  37
ENDBRANCH  16  36
ENDBRANCH  14  16
ENDBRANCH  11  12
BRANCH  11  40
ATOM     40  CB  ASP A   7      -7.351 -11.638  17.718  0.00  0.00    +0.143 C 
BRANCH  40  41
ATOM     41  CG  ASP A   7      -6.899 -12.193  19.048  0.00  0.00    +0.367 C 
ATOM     42  OD2 ASP A   7      -7.684 -12.154  19.998  0.00  0.00    -0.246 OA
ATOM     43  OD1 ASP A   7      -5.719 -12.633  19.098  0.00  0.00    -0.246 OA
ENDBRANCH  40  41
ENDBRANCH  11  40
ENDBRANCH   8  11
ENDBRANCH   5   7
ENDBRANCH   3   5
BRANCH   1  44
ATOM     44  CA  GLY A   5     -13.240 -14.928  20.922  0.00  0.00    +0.176 C 
BRANCH  44  47
ATOM     45  C   THR A   4     -14.460 -12.812  20.876  0.00  0.00    +0.243 C 
ATOM     46  O   THR A   4     -13.502 -12.191  21.376  0.00  0.00    -0.273 OA
ATOM     47  N   GLY A   5     -14.423 -14.120  20.616  0.00  0.00    -0.295 N 
ATOM     48  H   GLY A   5     -15.253 -14.576  20.186  0.00  0.00    +0.150 HD
BRANCH  45  49
ATOM     49  CA  THR A   4     -15.731 -12.058  20.532  0.00  0.00    +0.176 C 
BRANCH  49  51
ATOM     50  C   ASP A   3     -16.142 -12.951  18.328  0.00  0.00    +0.241 C 
ATOM     51  N   THR A   4     -16.599 -12.793  19.611  0.00  0.00    -0.295 N 
ATOM     52  H   THR A   4     -17.517 -13.176  19.915  0.00  0.00    +0.150 HD
ATOM     53  O   ASP A   3     -15.046 -12.577  17.921  0.00  0.00    -0.273 OA
BRANCH  50  54
ATOM     54  CA  ASP A   3     -17.066 -13.683  17.380  0.00  0.00    +0.160 C 
BRANCH  54  57
ATOM     55  C   LEU A   2     -19.209 -12.837  16.553  0.00  0.00    +0.241 C 
ATOM     56  O   LEU A   2     -19.890 -13.434  17.397  0.00  0.00    -0.273 OA
ATOM     57  N   ASP A   3     -17.868 -12.797  16.540  0.00  0.00    -0.297 N 
ATOM     58  H   ASP A   3     -17.387 -12.118  15.916  0.00  0.00    +0.150 HD
BRANCH  55  59
ATOM     59  CA  LEU A   2     -19.955 -12.129  15.434  0.00  0.00    +0.149 C 
BRANCH  59  61
ATOM     60  C   LEU A   1     -19.825 -13.853  13.709  0.00  0.00    +0.238 C 
ATOM     61  N   LEU A   2     -20.548 -13.173  14.578  0.00  0.00    -0.297 N 
ATOM     62  H   LEU A   2     -21.564 -13.379  14.662  0.00  0.00    +0.150 HD
ATOM     63  O   LEU A   1     -18.624 -13.595  13.481  0.00  0.00    -0.274 OA
BRANCH  60  64
ATOM     64  CA  LEU A   1     -20.480 -15.003  12.969  0.00  0.00    +0.145 C 
BRANCH  64  65
ATOM     65  N   LEU A   1     -20.279 -14.855  11.544  0.00  0.00    -0.238 NA
ATOM     66  H   LEU A   1     -19.388 -15.221  11.152  0.00  0.00    +0.142 HD
ENDBRANCH  64  65
BRANCH  64  67
ATOM     67  CB  LEU A   1     -19.842 -16.367  13.290  0.00  0.00    +0.026 C 
BRANCH  67  68
ATOM     68  CG  LEU A   1     -19.891 -16.864  14.714  0.00  0.00    +0.002 C 
ATOM     69  CD2 LEU A   1     -21.315 -17.086  15.166  0.00  0.00    +0.000 C 
ATOM     70  CD1 LEU A   1     -19.019 -18.119  14.829  0.00  0.00    +0.000 C 
ENDBRANCH  67  68
ENDBRANCH  64  67
ENDBRANCH  60  64
ENDBRANCH  59  61
BRANCH  59  71
ATOM     71  CB  LEU A   2     -21.042 -11.198  15.971  0.00  0.00    +0.029 C 
BRANCH  71  72
ATOM     72  CG  LEU A   2     -21.885 -10.476  14.922  0.00  0.00    +0.002 C 
ATOM     73  CD2 LEU A   2     -22.928  -9.654  15.634  0.00  0.00    +0.000 C 
ATOM     74  CD1 LEU A   2     -20.994  -9.650  13.987  0.00  0.00    +0.000 C 
ENDBRANCH  71  72
ENDBRANCH  59  71
ENDBRANCH  55  59
ENDBRANCH  54  57
BRANCH  54  75
ATOM     75  CB  ASP A   3     -16.315 -14.612  16.435  0.00  0.00    +0.143 C 
BRANCH  75  76
ATOM     76  CG  ASP A   3     -15.640 -15.766  17.163  0.00  0.00    +0.367 C 
ATOM     77  OD2 ASP A   3     -15.677 -15.743  18.431  0.00  0.00    -0.246 OA
ATOM     78  OD1 ASP A   3     -15.078 -16.666  16.497  0.00  0.00    -0.246 OA
ENDBRANCH  75  76
ENDBRANCH  54  75
ENDBRANCH  50  54
ENDBRANCH  49  51
BRANCH  49  79
ATOM     79  CB  THR A   4     -16.496 -11.731  21.806  0.00  0.00    +0.137 C 
ATOM     80  CG2 THR A   4     -17.701 -10.847  21.516  0.00  0.00    +0.034 C 
BRANCH  79  81
ATOM     81  OG1 THR A   4     -16.996 -12.957  22.401  0.00  0.00    -0.382 OA
ATOM     82  HG1 THR A   4     -16.235 -13.552  22.617  0.00  0.00    +0.210 HD
ENDBRANCH  79  81
ENDBRANCH  49  79
ENDBRANCH  45  49
ENDBRANCH  44  47
ENDBRANCH   1  44
TORSDOF 35
REMARK  Name = ../refined-set-2016/4heg/4heg_pocket.pdb
REMARK  221 active torsions:
REMARK  status: ('A' for Active; 'I' for Inactive)
REMARK    1  A    between atoms: _1  and  _3
REMARK    2  A    between atoms: _3  and  _4
REMARK    3  A    between atoms: _3  and  _6
REMARK    4  A    between atoms: _6  and  _7
REMARK    5  A    between atoms: _7  and  _8
REMARK    6  A    between atoms: _13  and  _15
REMARK    7  A    between atoms: _15  and  _16
REMARK    8  A    between atoms: _15  and  _18
REMARK    9  A    between atoms: _18  and  _19
REMARK   10  A    between atoms: _22  and  _24
REMARK   11  A    between atoms: _24  and  _25
REMARK   12  A    between atoms: _24  and  _27
REMARK   13  A    between atoms: _27  and  _28
REMARK   14  A    between atoms: _31  and  _33
REMARK   15  A    between atoms: _33  and  _34
REMARK   16  A    between atoms: _33  and  _36
REMARK   17  A    between atoms: _36  and  _37
REMARK   18  A    between atoms: _40  and  _42
REMARK   19  A    between atoms: _42  and  _43
REMARK   20  A    between atoms: _42  and  _45
REMARK   21  A    between atoms: _45  and  _46
REMARK   22  A    between atoms: _49  and  _51
REMARK   23  A    between atoms: _51  and  _52
REMARK   24  A    between atoms: _54  and  _56
REMARK   25  A    between atoms: _56  and  _57
REMARK   26  A    between atoms: _60  and  _62
REMARK   27  A    between atoms: _62  and  _63
REMARK   28  A    between atoms: _62  and  _65
REMARK   29  A    between atoms: _65  and  _66
REMARK   30  A    between atoms: _69  and  _71
REMARK   31  A    between atoms: _71  and  _72
REMARK   32  A    between atoms: _71  and  _74
REMARK   33  A    between atoms: _74  and  _75
REMARK   34  A    between atoms: _78  and  _80
REMARK   35  A    between atoms: _80  and  _81
REMARK   36  A    between atoms: _80  and  _83
REMARK   37  A    between atoms: _83  and  _84
REMARK   38  A    between atoms: _87  and  _89
REMARK   39  A    between atoms: _89  and  _90
REMARK   40  A    between atoms: _89  and  _92
REMARK   41  A    between atoms: _95  and  _97
REMARK   42  A    between atoms: _97  and  _98
REMARK   43  A    between atoms: _97  and  _100
REMARK   44  A    between atoms: _100  and  _101
REMARK   45  A    between atoms: _101  and  _102
REMARK   46  A    between atoms: _102  and  _103
REMARK   47  A    between atoms: _103  and  _104
REMARK   48  A    between atoms: _108  and  _110
REMARK   49  A    between atoms: _110  and  _111
REMARK   50  A    between atoms: _110  and  _113
REMARK   51  A    between atoms: _113  and  _114
REMARK   52  A    between atoms: _114  and  _115
REMARK   53  A    between atoms: _117  and  _119
REMARK   54  A    between atoms: _119  and  _120
REMARK   55  A    between atoms: _119  and  _122
REMARK   56  A    between atoms: _122  and  _123
REMARK   57  A    between atoms: _126  and  _128
REMARK   58  A    between atoms: _128  and  _129
REMARK   59  A    between atoms: _131  and  _133
REMARK   60  A    between atoms: _133  and  _134
REMARK   61  A    between atoms: _136  and  _138
REMARK   62  A    between atoms: _138  and  _139
REMARK   63  A    between atoms: _138  and  _141
REMARK   64  A    between atoms: _141  and  _142
REMARK   65  A    between atoms: _145  and  _147
REMARK   66  A    between atoms: _147  and  _148
REMARK   67  A    between atoms: _150  and  _152
REMARK   68  A    between atoms: _152  and  _153
REMARK   69  A    between atoms: _155  and  _157
REMARK   70  A    between atoms: _157  and  _158
REMARK   71  A    between atoms: _157  and  _160
REMARK   72  A    between atoms: _160  and  _161
REMARK   73  A    between atoms: _167  and  _169
REMARK   74  A    between atoms: _169  and  _170
REMARK   75  A    between atoms: _169  and  _172
REMARK   76  A    between atoms: _172  and  _173
REMARK   77  A    between atoms: _176  and  _178
REMARK   78  A    between atoms: _178  and  _179
REMARK   79  A    between atoms: _178  and  _181
REMARK   80  A    between atoms: _181  and  _182
REMARK   81  A    between atoms: _185  and  _187
REMARK   82  A    between atoms: _187  and  _188
REMARK   83  A    between atoms: _187  and  _190
REMARK   84  A    between atoms: _190  and  _191
REMARK   85  A    between atoms: _195  and  _196
REMARK   86  A    between atoms: _201  and  _203
REMARK   87  A    between atoms: _203  and  _204
REMARK   88  A    between atoms: _203  and  _206
REMARK   89  A    between atoms: _209  and  _211
REMARK   90  A    between atoms: _211  and  _212
REMARK   91  A    between atoms: _211  and  _214
REMARK   92  A    between atoms: _214  and  _215
REMARK   93  A    between atoms: _220  and  _222
REMARK   94  A    between atoms: _222  and  _223
REMARK   95  A    between atoms: _222  and  _225
REMARK   96  A    between atoms: _225  and  _226
REMARK   97  A    between atoms: _229  and  _231
REMARK   98  A    between atoms: _231  and  _232
REMARK   99  A    between atoms: _231  and  _234
REMARK  100  A    between atoms: _234  and  _235
REMARK  101  A    between atoms: _238  and  _240
REMARK  102  A    between atoms: _240  and  _241
REMARK  103  A    between atoms: _243  and  _245
REMARK  104  A    between atoms: _245  and  _246
REMARK  105  A    between atoms: _245  and  _248
REMARK  106  A    between atoms: _248  and  _249
REMARK  107  A    between atoms: _249  and  _250
REMARK  108  A    between atoms: _250  and  _251
REMARK  109  A    between atoms: _260  and  _262
REMARK  110  A    between atoms: _262  and  _263
REMARK  111  A    between atoms: _262  and  _265
REMARK  112  A    between atoms: _265  and  _266
REMARK  113  A    between atoms: _271  and  _273
REMARK  114  A    between atoms: _273  and  _274
REMARK  115  A    between atoms: _273  and  _276
REMARK  116  A    between atoms: _276  and  _277
REMARK  117  A    between atoms: _277  and  _278
REMARK  118  A    between atoms: _283  and  _285
REMARK  119  A    between atoms: _285  and  _286
REMARK  120  A    between atoms: _285  and  _288
REMARK  121  A    between atoms: _288  and  _289
REMARK  122  A    between atoms: _292  and  _294
REMARK  123  A    between atoms: _294  and  _295
REMARK  124  A    between atoms: _294  and  _297
REMARK  125  A    between atoms: _297  and  _298
REMARK  126  A    between atoms: _301  and  _303
REMARK  127  A    between atoms: _303  and  _304
REMARK  128  A    between atoms: _303  and  _306
REMARK  129  A    between atoms: _306  and  _307
REMARK  130  A    between atoms: _310  and  _312
REMARK  131  A    between atoms: _312  and  _313
REMARK  132  A    between atoms: _312  and  _315
REMARK  133  A    between atoms: _315  and  _316
REMARK  134  A    between atoms: _319  and  _321
REMARK  135  A    between atoms: _321  and  _322
REMARK  136  A    between atoms: _324  and  _326
REMARK  137  A    between atoms: _326  and  _327
REMARK  138  A    between atoms: _330  and  _332
REMARK  139  A    between atoms: _332  and  _333
REMARK  140  A    between atoms: _332  and  _335
REMARK  141  A    between atoms: _335  and  _336
REMARK  142  A    between atoms: _339  and  _341
REMARK  143  A    between atoms: _341  and  _342
REMARK  144  A    between atoms: _341  and  _344
REMARK  145  A    between atoms: _344  and  _345
REMARK  146  A    between atoms: _348  and  _350
REMARK  147  A    between atoms: _350  and  _351
REMARK  148  A    between atoms: _350  and  _353
REMARK  149  A    between atoms: _353  and  _354
REMARK  150  A    between atoms: _357  and  _359
REMARK  151  A    between atoms: _359  and  _360
REMARK  152  A    between atoms: _359  and  _362
REMARK  153  A    between atoms: _365  and  _367
REMARK  154  A    between atoms: _367  and  _368
REMARK  155  A    between atoms: _367  and  _370
REMARK  156  A    between atoms: _370  and  _371
REMARK  157  A    between atoms: _371  and  _372
REMARK  158  A    between atoms: _372  and  _373
REMARK  159  A    between atoms: _373  and  _374
REMARK  160  A    between atoms: _378  and  _380
REMARK  161  A    between atoms: _380  and  _381
REMARK  162  A    between atoms: _380  and  _383
REMARK  163  A    between atoms: _383  and  _384
REMARK  164  A    between atoms: _384  and  _385
REMARK  165  A    between atoms: _387  and  _389
REMARK  166  A    between atoms: _389  and  _390
REMARK  167  A    between atoms: _389  and  _392
REMARK  168  A    between atoms: _392  and  _393
REMARK  169  A    between atoms: _396  and  _398
REMARK  170  A    between atoms: _398  and  _399
REMARK  171  A    between atoms: _401  and  _403
REMARK  172  A    between atoms: _403  and  _404
REMARK  173  A    between atoms: _406  and  _408
REMARK  174  A    between atoms: _408  and  _409
REMARK  175  A    between atoms: _408  and  _411
REMARK  176  A    between atoms: _411  and  _412
REMARK  177  A    between atoms: _415  and  _417
REMARK  178  A    between atoms: _417  and  _418
REMARK  179  A    between atoms: _420  and  _422
REMARK  180  A    between atoms: _422  and  _423
REMARK  181  A    between atoms: _425  and  _427
REMARK  182  A    between atoms: _427  and  _428
REMARK  183  A    between atoms: _427  and  _430
REMARK  184  A    between atoms: _430  and  _431
REMARK  185  A    between atoms: _434  and  _436
REMARK  186  A    between atoms: _436  and  _437
REMARK  187  A    between atoms: _436  and  _439
REMARK  188  A    between atoms: _439  and  _440
REMARK  189  A    between atoms: _444  and  _445
REMARK  190  A    between atoms: _450  and  _452
REMARK  191  A    between atoms: _452  and  _453
REMARK  192  A    between atoms: _452  and  _455
REMARK  193  A    between atoms: _455  and  _456
REMARK  194  A    between atoms: _460  and  _461
REMARK  195  A    between atoms: _466  and  _468
REMARK  196  A    between atoms: _468  and  _469
REMARK  197  A    between atoms: _468  and  _471
REMARK  198  A    between atoms: _474  and  _476
REMARK  199  A    between atoms: _476  and  _477
REMARK  200  A    between atoms: _476  and  _479
REMARK  201  A    between atoms: _479  and  _480
REMARK  202  A    between atoms: _485  and  _487
REMARK  203  A    between atoms: _487  and  _488
REMARK  204  A    between atoms: _487  and  _490
REMARK  205  A    between atoms: _490  and  _491
REMARK  206  A    between atoms: _494  and  _496
REMARK  207  A    between atoms: _496  and  _497
REMARK  208  A    between atoms: _496  and  _499
REMARK  209  A    between atoms: _499  and  _500
REMARK  210  A    between atoms: _503  and  _505
REMARK  211  A    between atoms: _505  and  _506
REMARK  212  A    between atoms: _508  and  _510
REMARK  213  A    between atoms: _510  and  _511
REMARK  214  A    between atoms: _510  and  _513
REMARK  215  A    between atoms: _513  and  _514
REMARK  216  A    between atoms: _514  and  _515
REMARK  217  A    between atoms: _515  and  _516
REMARK  218  A    between atoms: _525  and  _527
REMARK  219  A    between atoms: _527  and  _528
REMARK  220  A    between atoms: _527  and  _530
REMARK  221  A    between atoms: _530  and  _531
REMARK                            x       y       z     vdW  Elec       q    Type
REMARK                         _______ _______ _______ _____ _____    ______ ____
ROOT
ATOM      1  C   GLY A   5      -7.631 -23.638  17.542  0.00  0.00    +0.243 C 
ATOM      2  N   ILE A   6      -8.875 -24.030  17.812  0.00  0.00    -0.297 N 
ATOM      3  H   ILE A   6      -9.665 -23.354  17.809  0.00  0.00    +0.150 HD
ATOM      4  O   GLY A   5      -6.639 -24.366  17.561  0.00  0.00    -0.273 OA
ENDROOT
BRANCH   1   5
ATOM      5  CA  GLY A   5      -7.460 -22.175  17.179  0.00  0.00    +0.176 C 
BRANCH   5   8
ATOM      6  C   GLY A   4      -5.731 -20.922  16.053  0.00  0.00    +0.243 C 
ATOM      7  O   GLY A   4      -6.009 -20.008  16.819  0.00  0.00    -0.273 OA
ATOM      8  N   GLY A   5      -6.423 -22.041  16.170  0.00  0.00    -0.295 N 
ATOM      9  H   GLY A   5      -6.223 -22.837  15.531  0.00  0.00    +0.150 HD
BRANCH   6  10
ATOM     10  CA  GLY A   4      -4.667 -20.904  14.983  0.00  0.00    +0.176 C 
BRANCH  10  12
ATOM     11  C   ILE A   3      -4.145 -19.518  13.072  0.00  0.00    +0.241 C 
ATOM     12  N   GLY A   4      -4.334 -19.633  14.391  0.00  0.00    -0.295 N 
ATOM     13  H   GLY A   4      -4.239 -18.794  14.998  0.00  0.00    +0.150 HD
ATOM     14  O   ILE A   3      -4.424 -20.477  12.369  0.00  0.00    -0.273 OA
BRANCH  11  15
ATOM     15  CA  ILE A   3      -3.679 -18.205  12.423  0.00  0.00    +0.149 C 
BRANCH  15  18
ATOM     16  C   MET A   2      -1.635 -17.992  11.264  0.00  0.00    +0.241 C 
ATOM     17  O   MET A   2      -1.202 -17.218  12.126  0.00  0.00    -0.273 OA
ATOM     18  N   ILE A   3      -2.865 -18.504  11.274  0.00  0.00    -0.297 N 
ATOM     19  H   ILE A   3      -3.219 -19.090  10.491  0.00  0.00    +0.150 HD
BRANCH  16  20
ATOM     20  CA  MET A   2      -0.786 -18.434  10.082  0.00  0.00    +0.149 C 
BRANCH  20  22
ATOM     21  C   LYS A   1      -0.593 -16.789   8.292  0.00  0.00    +0.238 C 
ATOM     22  N   MET A   2      -0.195 -17.266   9.469  0.00  0.00    -0.297 N 
ATOM     23  H   MET A   2       0.575 -16.777   9.969  0.00  0.00    +0.150 HD
ATOM     24  O   LYS A   1      -1.314 -17.427   7.504  0.00  0.00    -0.274 OA
BRANCH  21  25
ATOM     25  CA  LYS A   1      -0.111 -15.400   7.895  0.00  0.00    +0.145 C 
BRANCH  25  26
ATOM     26  N   LYS A   1       0.000 -15.347   6.452  0.00  0.00    -0.238 NA
ATOM     27  H   LYS A   1      -0.627 -15.940   5.871  0.00  0.00    +0.142 HD
ENDBRANCH  25  26
BRANCH  25  28
ATOM     28  CB  LYS A   1      -1.104 -14.315   8.335  0.00  0.00    +0.026 C 
BRANCH  28  29
ATOM     29  CG  LYS A   1      -1.107 -14.067   9.841  0.00  0.00    -0.000 C 
BRANCH  29  30
ATOM     30  CD  LYS A   1      -2.187 -13.063  10.268  0.00  0.00    -0.024 C 
BRANCH  30  31
ATOM     31  CE  LYS A   1      -2.488 -13.090  11.752  0.00  0.00    -0.086 C 
BRANCH  31  32
ATOM     32  NZ  LYS A   1      -2.466 -11.799  12.442  0.00  0.00    +0.380 N 
ATOM     33  HZ1 LYS A   1      -2.686 -11.941  13.449  0.00  0.00    -0.089 HD
ATOM     34  HZ2 LYS A   1      -1.522 -11.374  12.349  0.00  0.00    -0.089 HD
ATOM     35  HZ3 LYS A   1      -3.175 -11.168  12.017  0.00  0.00    -0.089 HD
ENDBRANCH  31  32
ENDBRANCH  30  31
ENDBRANCH  29  30
ENDBRANCH  28  29
ENDBRANCH  25  28
ENDBRANCH  21  25
ENDBRANCH  20  22
BRANCH  20  36
ATOM     36  CB  MET A   2       0.283 -19.394  10.609  0.00  0.00    +0.041 C 
BRANCH  36  37
ATOM     37  CG  MET A   2       1.041 -20.050   9.501  0.00  0.00    +0.060 C 
BRANCH  37  38
ATOM     38  SD  MET A   2       0.154 -21.383   8.738  0.00  0.00    -0.139 S 
ATOM     39  CE  MET A   2       0.645 -22.768   9.773  0.00  0.00    +0.069 C 
ENDBRANCH  37  38
ENDBRANCH  36  37
ENDBRANCH  20  36
ENDBRANCH  16  20
ENDBRANCH  15  18
BRANCH  15  40
ATOM     40  CB  ILE A   3      -4.934 -17.367  12.189  0.00  0.00    +0.027 C 
ATOM     41  CG2 ILE A   3      -4.568 -15.920  12.007  0.00  0.00    +0.002 C 
BRANCH  40  42
ATOM     42  CG1 ILE A   3      -5.823 -17.964  11.088  0.00  0.00    +0.002 C 
ATOM     43  CD1 ILE A   3      -7.186 -17.282  11.081  0.00  0.00    +0.000 C 
ENDBRANCH  40  42
ENDBRANCH  15  40
ENDBRANCH  11  15
ENDBRANCH  10  12
ENDBRANCH   6  10
ENDBRANCH   5   8
ENDBRANCH   1   5
BRANCH   2  44
ATOM     44  CA  ILE A   6      -9.091 -25.453  18.114  0.00  0.00    +0.149 C 
BRANCH  44  45
ATOM     45  C   ILE A   6      -8.834 -26.249  16.849  0.00  0.00    +0.241 C 
ATOM     46  N   GLY A   7      -8.029 -27.302  16.975  0.00  0.00    -0.295 N 
ATOM     47  H   GLY A   7      -7.744 -27.623  17.923  0.00  0.00    +0.150 HD
ATOM     48  O   ILE A   6      -9.308 -25.915  15.764  0.00  0.00    -0.273 OA
BRANCH  46  49
ATOM     49  CA  GLY A   7      -7.548 -28.002  15.809  0.00  0.00    +0.176 C 
BRANCH  49  50
ATOM     50  C   GLY A   7      -6.279 -27.455  15.190  0.00  0.00    +0.243 C 
ATOM     51  N   GLY A   8      -5.617 -26.383  15.629  0.00  0.00    -0.295 N 
ATOM     52  H   GLY A   8      -5.993 -25.821  16.419  0.00  0.00    +0.150 HD
ATOM     53  O   GLY A   7      -5.855 -28.077  14.203  0.00  0.00    -0.273 OA
BRANCH  51  54
ATOM     54  CA  GLY A   8      -4.363 -26.006  14.992  0.00  0.00    +0.176 C 
BRANCH  54  55
ATOM     55  C   GLY A   8      -4.380 -24.714  14.231  0.00  0.00    +0.243 C 
ATOM     56  O   GLY A   8      -5.114 -23.793  14.563  0.00  0.00    -0.273 OA
ATOM     57  N   PHE A   9      -3.530 -24.659  13.201  0.00  0.00    -0.297 N 
ATOM     58  H   PHE A   9      -2.963 -25.496  12.956  0.00  0.00    +0.150 HD
BRANCH  57  59
ATOM     59  CA  PHE A   9      -3.389 -23.441  12.419  0.00  0.00    +0.153 C 
BRANCH  59  60
ATOM     60  C   PHE A   9      -3.804 -23.624  10.983  0.00  0.00    +0.241 C 
ATOM     61  O   PHE A   9      -3.687 -24.741  10.455  0.00  0.00    -0.273 OA
ATOM     62  N   ILE A  10      -4.228 -22.530  10.372  0.00  0.00    -0.298 N 
ATOM     63  H   ILE A  10      -4.414 -21.677  10.937  0.00  0.00    +0.150 HD
BRANCH  62  64
ATOM     64  CA  ILE A  10      -4.442 -22.483   8.934  0.00  0.00    +0.137 C 
BRANCH  64  65
ATOM     65  CB  ILE A  10      -5.929 -22.326   8.543  0.00  0.00    +0.026 C 
ATOM     66  CG2 ILE A  10      -6.701 -23.563   8.981  0.00  0.00    +0.002 C 
BRANCH  65  67
ATOM     67  CG1 ILE A  10      -6.591 -21.054   9.068  0.00  0.00    +0.002 C 
ATOM     68  CD1 ILE A  10      -7.992 -20.815   8.547  0.00  0.00    +0.000 C 
ENDBRANCH  65  67
ENDBRANCH  64  65
BRANCH  64  69
ATOM     69  C   ILE A  10      -3.656 -21.327   8.350  0.00  0.00    +0.227 C 
ATOM     70  O   ILE A  10      -3.406 -20.322   9.017  0.00  0.00    -0.286 OA
ENDBRANCH  64  69
ENDBRANCH  62  64
ENDBRANCH  59  60
BRANCH  59  71
ATOM     71  CB  PHE A   9      -1.903 -23.016  12.445  0.00  0.00    +0.055 C 
BRANCH  71  72
ATOM     72  CG  PHE A   9      -1.441 -22.460  13.768  0.00  0.00    -0.020 A 
ATOM     73  CD2 PHE A   9      -1.184 -23.324  14.801  0.00  0.00    -0.004 A 
ATOM     74  CE2 PHE A   9      -0.733 -22.833  16.004  0.00  0.00    -0.000 A 
ATOM     75  CZ  PHE A   9      -0.602 -21.488  16.159  0.00  0.00    -0.000 A 
ATOM     76  CE1 PHE A   9      -0.853 -20.594  15.143  0.00  0.00    -0.000 A 
ATOM     77  CD1 PHE A   9      -1.271 -21.094  13.923  0.00  0.00    -0.004 A 
ENDBRANCH  71  72
ENDBRANCH  59  71
ENDBRANCH  57  59
ENDBRANCH  54  55
ENDBRANCH  51  54
ENDBRANCH  49  50
ENDBRANCH  46  49
ENDBRANCH  44  45
BRANCH  44  78
ATOM     78  CB  ILE A   6     -10.488 -25.652  18.709  0.00  0.00    +0.027 C 
ATOM     79  CG2 ILE A   6     -10.951 -27.075  18.478  0.00  0.00    +0.002 C 
BRANCH  78  80
ATOM     80  CG1 ILE A   6     -10.511 -25.233  20.183  0.00  0.00    +0.002 C 
ATOM     81  CD1 ILE A   6     -11.863 -25.074  20.801  0.00  0.00    +0.000 C 
ENDBRANCH  78  80
ENDBRANCH  44  78
ENDBRANCH   2  44
TORSDOF 36
REMARK  Name = ../refined-set-2016/4heg/4heg_pocket.pdb
REMARK  221 active torsions:
REMARK  status: ('A' for Active; 'I' for Inactive)
REMARK    1  A    between atoms: _1  and  _3
REMARK    2  A    between atoms: _3  and  _4
REMARK    3  A    between atoms: _3  and  _6
REMARK    4  A    between atoms: _6  and  _7
REMARK    5  A    between atoms: _7  and  _8
REMARK    6  A    between atoms: _13  and  _15
REMARK    7  A    between atoms: _15  and  _16
REMARK    8  A    between atoms: _15  and  _18
REMARK    9  A    between atoms: _18  and  _19
REMARK   10  A    between atoms: _22  and  _24
REMARK   11  A    between atoms: _24  and  _25
REMARK   12  A    between atoms: _24  and  _27
REMARK   13  A    between atoms: _27  and  _28
REMARK   14  A    between atoms: _31  and  _33
REMARK   15  A    between atoms: _33  and  _34
REMARK   16  A    between atoms: _33  and  _36
REMARK   17  A    between atoms: _36  and  _37
REMARK   18  A    between atoms: _40  and  _42
REMARK   19  A    between atoms: _42  and  _43
REMARK   20  A    between atoms: _42  and  _45
REMARK   21  A    between atoms: _45  and  _46
REMARK   22  A    between atoms: _49  and  _51
REMARK   23  A    between atoms: _51  and  _52
REMARK   24  A    between atoms: _54  and  _56
REMARK   25  A    between atoms: _56  and  _57
REMARK   26  A    between atoms: _60  and  _62
REMARK   27  A    between atoms: _62  and  _63
REMARK   28  A    between atoms: _62  and  _65
REMARK   29  A    between atoms: _65  and  _66
REMARK   30  A    between atoms: _69  and  _71
REMARK   31  A    between atoms: _71  and  _72
REMARK   32  A    between atoms: _71  and  _74
REMARK   33  A    between atoms: _74  and  _75
REMARK   34  A    between atoms: _78  and  _80
REMARK   35  A    between atoms: _80  and  _81
REMARK   36  A    between atoms: _80  and  _83
REMARK   37  A    between atoms: _83  and  _84
REMARK   38  A    between atoms: _87  and  _89
REMARK   39  A    between atoms: _89  and  _90
REMARK   40  A    between atoms: _89  and  _92
REMARK   41  A    between atoms: _95  and  _97
REMARK   42  A    between atoms: _97  and  _98
REMARK   43  A    between atoms: _97  and  _100
REMARK   44  A    between atoms: _100  and  _101
REMARK   45  A    between atoms: _101  and  _102
REMARK   46  A    between atoms: _102  and  _103
REMARK   47  A    between atoms: _103  and  _104
REMARK   48  A    between atoms: _108  and  _110
REMARK   49  A    between atoms: _110  and  _111
REMARK   50  A    between atoms: _110  and  _113
REMARK   51  A    between atoms: _113  and  _114
REMARK   52  A    between atoms: _114  and  _115
REMARK   53  A    between atoms: _117  and  _119
REMARK   54  A    between atoms: _119  and  _120
REMARK   55  A    between atoms: _119  and  _122
REMARK   56  A    between atoms: _122  and  _123
REMARK   57  A    between atoms: _126  and  _128
REMARK   58  A    between atoms: _128  and  _129
REMARK   59  A    between atoms: _131  and  _133
REMARK   60  A    between atoms: _133  and  _134
REMARK   61  A    between atoms: _136  and  _138
REMARK   62  A    between atoms: _138  and  _139
REMARK   63  A    between atoms: _138  and  _141
REMARK   64  A    between atoms: _141  and  _142
REMARK   65  A    between atoms: _145  and  _147
REMARK   66  A    between atoms: _147  and  _148
REMARK   67  A    between atoms: _150  and  _152
REMARK   68  A    between atoms: _152  and  _153
REMARK   69  A    between atoms: _155  and  _157
REMARK   70  A    between atoms: _157  and  _158
REMARK   71  A    between atoms: _157  and  _160
REMARK   72  A    between atoms: _160  and  _161
REMARK   73  A    between atoms: _167  and  _169
REMARK   74  A    between atoms: _169  and  _170
REMARK   75  A    between atoms: _169  and  _172
REMARK   76  A    between atoms: _172  and  _173
REMARK   77  A    between atoms: _176  and  _178
REMARK   78  A    between atoms: _178  and  _179
REMARK   79  A    between atoms: _178  and  _181
REMARK   80  A    between atoms: _181  and  _182
REMARK   81  A    between atoms: _185  and  _187
REMARK   82  A    between atoms: _187  and  _188
REMARK   83  A    between atoms: _187  and  _190
REMARK   84  A    between atoms: _190  and  _191
REMARK   85  A    between atoms: _195  and  _196
REMARK   86  A    between atoms: _201  and  _203
REMARK   87  A    between atoms: _203  and  _204
REMARK   88  A    between atoms: _203  and  _206
REMARK   89  A    between atoms: _209  and  _211
REMARK   90  A    between atoms: _211  and  _212
REMARK   91  A    between atoms: _211  and  _214
REMARK   92  A    between atoms: _214  and  _215
REMARK   93  A    between atoms: _220  and  _222
REMARK   94  A    between atoms: _222  and  _223
REMARK   95  A    between atoms: _222  and  _225
REMARK   96  A    between atoms: _225  and  _226
REMARK   97  A    between atoms: _229  and  _231
REMARK   98  A    between atoms: _231  and  _232
REMARK   99  A    between atoms: _231  and  _234
REMARK  100  A    between atoms: _234  and  _235
REMARK  101  A    between atoms: _238  and  _240
REMARK  102  A    between atoms: _240  and  _241
REMARK  103  A    between atoms: _243  and  _245
REMARK  104  A    between atoms: _245  and  _246
REMARK  105  A    between atoms: _245  and  _248
REMARK  106  A    between atoms: _248  and  _249
REMARK  107  A    between atoms: _249  and  _250
REMARK  108  A    between atoms: _250  and  _251
REMARK  109  A    between atoms: _260  and  _262
REMARK  110  A    between atoms: _262  and  _263
REMARK  111  A    between atoms: _262  and  _265
REMARK  112  A    between atoms: _265  and  _266
REMARK  113  A    between atoms: _271  and  _273
REMARK  114  A    between atoms: _273  and  _274
REMARK  115  A    between atoms: _273  and  _276
REMARK  116  A    between atoms: _276  and  _277
REMARK  117  A    between atoms: _277  and  _278
REMARK  118  A    between atoms: _283  and  _285
REMARK  119  A    between atoms: _285  and  _286
REMARK  120  A    between atoms: _285  and  _288
REMARK  121  A    between atoms: _288  and  _289
REMARK  122  A    between atoms: _292  and  _294
REMARK  123  A    between atoms: _294  and  _295
REMARK  124  A    between atoms: _294  and  _297
REMARK  125  A    between atoms: _297  and  _298
REMARK  126  A    between atoms: _301  and  _303
REMARK  127  A    between atoms: _303  and  _304
REMARK  128  A    between atoms: _303  and  _306
REMARK  129  A    between atoms: _306  and  _307
REMARK  130  A    between atoms: _310  and  _312
REMARK  131  A    between atoms: _312  and  _313
REMARK  132  A    between atoms: _312  and  _315
REMARK  133  A    between atoms: _315  and  _316
REMARK  134  A    between atoms: _319  and  _321
REMARK  135  A    between atoms: _321  and  _322
REMARK  136  A    between atoms: _324  and  _326
REMARK  137  A    between atoms: _326  and  _327
REMARK  138  A    between atoms: _330  and  _332
REMARK  139  A    between atoms: _332  and  _333
REMARK  140  A    between atoms: _332  and  _335
REMARK  141  A    between atoms: _335  and  _336
REMARK  142  A    between atoms: _339  and  _341
REMARK  143  A    between atoms: _341  and  _342
REMARK  144  A    between atoms: _341  and  _344
REMARK  145  A    between atoms: _344  and  _345
REMARK  146  A    between atoms: _348  and  _350
REMARK  147  A    between atoms: _350  and  _351
REMARK  148  A    between atoms: _350  and  _353
REMARK  149  A    between atoms: _353  and  _354
REMARK  150  A    between atoms: _357  and  _359
REMARK  151  A    between atoms: _359  and  _360
REMARK  152  A    between atoms: _359  and  _362
REMARK  153  A    between atoms: _365  and  _367
REMARK  154  A    between atoms: _367  and  _368
REMARK  155  A    between atoms: _367  and  _370
REMARK  156  A    between atoms: _370  and  _371
REMARK  157  A    between atoms: _371  and  _372
REMARK  158  A    between atoms: _372  and  _373
REMARK  159  A    between atoms: _373  and  _374
REMARK  160  A    between atoms: _378  and  _380
REMARK  161  A    between atoms: _380  and  _381
REMARK  162  A    between atoms: _380  and  _383
REMARK  163  A    between atoms: _383  and  _384
REMARK  164  A    between atoms: _384  and  _385
REMARK  165  A    between atoms: _387  and  _389
REMARK  166  A    between atoms: _389  and  _390
REMARK  167  A    between atoms: _389  and  _392
REMARK  168  A    between atoms: _392  and  _393
REMARK  169  A    between atoms: _396  and  _398
REMARK  170  A    between atoms: _398  and  _399
REMARK  171  A    between atoms: _401  and  _403
REMARK  172  A    between atoms: _403  and  _404
REMARK  173  A    between atoms: _406  and  _408
REMARK  174  A    between atoms: _408  and  _409
REMARK  175  A    between atoms: _408  and  _411
REMARK  176  A    between atoms: _411  and  _412
REMARK  177  A    between atoms: _415  and  _417
REMARK  178  A    between atoms: _417  and  _418
REMARK  179  A    between atoms: _420  and  _422
REMARK  180  A    between atoms: _422  and  _423
REMARK  181  A    between atoms: _425  and  _427
REMARK  182  A    between atoms: _427  and  _428
REMARK  183  A    between atoms: _427  and  _430
REMARK  184  A    between atoms: _430  and  _431
REMARK  185  A    between atoms: _434  and  _436
REMARK  186  A    between atoms: _436  and  _437
REMARK  187  A    between atoms: _436  and  _439
REMARK  188  A    between atoms: _439  and  _440
REMARK  189  A    between atoms: _444  and  _445
REMARK  190  A    between atoms: _450  and  _452
REMARK  191  A    between atoms: _452  and  _453
REMARK  192  A    between atoms: _452  and  _455
REMARK  193  A    between atoms: _455  and  _456
REMARK  194  A    between atoms: _460  and  _461
REMARK  195  A    between atoms: _466  and  _468
REMARK  196  A    between atoms: _468  and  _469
REMARK  197  A    between atoms: _468  and  _471
REMARK  198  A    between atoms: _474  and  _476
REMARK  199  A    between atoms: _476  and  _477
REMARK  200  A    between atoms: _476  and  _479
REMARK  201  A    between atoms: _479  and  _480
REMARK  202  A    between atoms: _485  and  _487
REMARK  203  A    between atoms: _487  and  _488
REMARK  204  A    between atoms: _487  and  _490
REMARK  205  A    between atoms: _490  and  _491
REMARK  206  A    between atoms: _494  and  _496
REMARK  207  A    between atoms: _496  and  _497
REMARK  208  A    between atoms: _496  and  _499
REMARK  209  A    between atoms: _499  and  _500
REMARK  210  A    between atoms: _503  and  _505
REMARK  211  A    between atoms: _505  and  _506
REMARK  212  A    between atoms: _508  and  _510
REMARK  213  A    between atoms: _510  and  _511
REMARK  214  A    between atoms: _510  and  _513
REMARK  215  A    between atoms: _513  and  _514
REMARK  216  A    between atoms: _514  and  _515
REMARK  217  A    between atoms: _515  and  _516
REMARK  218  A    between atoms: _525  and  _527
REMARK  219  A    between atoms: _527  and  _528
REMARK  220  A    between atoms: _527  and  _530
REMARK  221  A    between atoms: _530  and  _531
REMARK                            x       y       z     vdW  Elec       q    Type
REMARK                         _______ _______ _______ _____ _____    ______ ____
ROOT
ATOM      1  CA  LEU A   1      -7.765 -12.666   6.608  0.00  0.00    +0.133 C 
ENDROOT
BRANCH   1   2
ATOM      2  N   LEU A   1      -8.522 -11.499   6.937  0.00  0.00    -0.239 NA
ATOM      3  H   LEU A   1      -9.205 -11.555   7.719  0.00  0.00    +0.142 HD
ENDBRANCH   1   2
BRANCH   1   4
ATOM      4  C   LEU A   1      -8.626 -13.586   5.767  0.00  0.00    +0.224 C 
ATOM      5  O   LEU A   1      -9.786 -13.802   6.143  0.00  0.00    -0.287 OA
ENDBRANCH   1   4
BRANCH   1   6
ATOM      6  CB  LEU A   1      -7.353 -13.406   7.895  0.00  0.00    +0.025 C 
BRANCH   6   7
ATOM      7  CG  LEU A   1      -6.659 -12.522   8.946  0.00  0.00    +0.002 C 
ATOM      8  CD2 LEU A   1      -6.300 -13.354  10.160  0.00  0.00    +0.000 C 
ATOM      9  CD1 LEU A   1      -5.442 -11.835   8.362  0.00  0.00    +0.000 C 
ENDBRANCH   6   7
ENDBRANCH   1   6
TORSDOF 4
REMARK  Name = ../refined-set-2016/4heg/4heg_pocket.pdb
REMARK  221 active torsions:
REMARK  status: ('A' for Active; 'I' for Inactive)
REMARK    1  A    between atoms: _1  and  _3
REMARK    2  A    between atoms: _3  and  _4
REMARK    3  A    between atoms: _3  and  _6
REMARK    4  A    between atoms: _6  and  _7
REMARK    5  A    between atoms: _7  and  _8
REMARK    6  A    between atoms: _13  and  _15
REMARK    7  A    between atoms: _15  and  _16
REMARK    8  A    between atoms: _15  and  _18
REMARK    9  A    between atoms: _18  and  _19
REMARK   10  A    between atoms: _22  and  _24
REMARK   11  A    between atoms: _24  and  _25
REMARK   12  A    between atoms: _24  and  _27
REMARK   13  A    between atoms: _27  and  _28
REMARK   14  A    between atoms: _31  and  _33
REMARK   15  A    between atoms: _33  and  _34
REMARK   16  A    between atoms: _33  and  _36
REMARK   17  A    between atoms: _36  and  _37
REMARK   18  A    between atoms: _40  and  _42
REMARK   19  A    between atoms: _42  and  _43
REMARK   20  A    between atoms: _42  and  _45
REMARK   21  A    between atoms: _45  and  _46
REMARK   22  A    between atoms: _49  and  _51
REMARK   23  A    between atoms: _51  and  _52
REMARK   24  A    between atoms: _54  and  _56
REMARK   25  A    between atoms: _56  and  _57
REMARK   26  A    between atoms: _60  and  _62
REMARK   27  A    between atoms: _62  and  _63
REMARK   28  A    between atoms: _62  and  _65
REMARK   29  A    between atoms: _65  and  _66
REMARK   30  A    between atoms: _69  and  _71
REMARK   31  A    between atoms: _71  and  _72
REMARK   32  A    between atoms: _71  and  _74
REMARK   33  A    between atoms: _74  and  _75
REMARK   34  A    between atoms: _78  and  _80
REMARK   35  A    between atoms: _80  and  _81
REMARK   36  A    between atoms: _80  and  _83
REMARK   37  A    between atoms: _83  and  _84
REMARK   38  A    between atoms: _87  and  _89
REMARK   39  A    between atoms: _89  and  _90
REMARK   40  A    between atoms: _89  and  _92
REMARK   41  A    between atoms: _95  and  _97
REMARK   42  A    between atoms: _97  and  _98
REMARK   43  A    between atoms: _97  and  _100
REMARK   44  A    between atoms: _100  and  _101
REMARK   45  A    between atoms: _101  and  _102
REMARK   46  A    between atoms: _102  and  _103
REMARK   47  A    between atoms: _103  and  _104
REMARK   48  A    between atoms: _108  and  _110
REMARK   49  A    between atoms: _110  and  _111
REMARK   50  A    between atoms: _110  and  _113
REMARK   51  A    between atoms: _113  and  _114
REMARK   52  A    between atoms: _114  and  _115
REMARK   53  A    between atoms: _117  and  _119
REMARK   54  A    between atoms: _119  and  _120
REMARK   55  A    between atoms: _119  and  _122
REMARK   56  A    between atoms: _122  and  _123
REMARK   57  A    between atoms: _126  and  _128
REMARK   58  A    between atoms: _128  and  _129
REMARK   59  A    between atoms: _131  and  _133
REMARK   60  A    between atoms: _133  and  _134
REMARK   61  A    between atoms: _136  and  _138
REMARK   62  A    between atoms: _138  and  _139
REMARK   63  A    between atoms: _138  and  _141
REMARK   64  A    between atoms: _141  and  _142
REMARK   65  A    between atoms: _145  and  _147
REMARK   66  A    between atoms: _147  and  _148
REMARK   67  A    between atoms: _150  and  _152
REMARK   68  A    between atoms: _152  and  _153
REMARK   69  A    between atoms: _155  and  _157
REMARK   70  A    between atoms: _157  and  _158
REMARK   71  A    between atoms: _157  and  _160
REMARK   72  A    between atoms: _160  and  _161
REMARK   73  A    between atoms: _167  and  _169
REMARK   74  A    between atoms: _169  and  _170
REMARK   75  A    between atoms: _169  and  _172
REMARK   76  A    between atoms: _172  and  _173
REMARK   77  A    between atoms: _176  and  _178
REMARK   78  A    between atoms: _178  and  _179
REMARK   79  A    between atoms: _178  and  _181
REMARK   80  A    between atoms: _181  and  _182
REMARK   81  A    between atoms: _185  and  _187
REMARK   82  A    between atoms: _187  and  _188
REMARK   83  A    between atoms: _187  and  _190
REMARK   84  A    between atoms: _190  and  _191
REMARK   85  A    between atoms: _195  and  _196
REMARK   86  A    between atoms: _201  and  _203
REMARK   87  A    between atoms: _203  and  _204
REMARK   88  A    between atoms: _203  and  _206
REMARK   89  A    between atoms: _209  and  _211
REMARK   90  A    between atoms: _211  and  _212
REMARK   91  A    between atoms: _211  and  _214
REMARK   92  A    between atoms: _214  and  _215
REMARK   93  A    between atoms: _220  and  _222
REMARK   94  A    between atoms: _222  and  _223
REMARK   95  A    between atoms: _222  and  _225
REMARK   96  A    between atoms: _225  and  _226
REMARK   97  A    between atoms: _229  and  _231
REMARK   98  A    between atoms: _231  and  _232
REMARK   99  A    between atoms: _231  and  _234
REMARK  100  A    between atoms: _234  and  _235
REMARK  101  A    between atoms: _238  and  _240
REMARK  102  A    between atoms: _240  and  _241
REMARK  103  A    between atoms: _243  and  _245
REMARK  104  A    between atoms: _245  and  _246
REMARK  105  A    between atoms: _245  and  _248
REMARK  106  A    between atoms: _248  and  _249
REMARK  107  A    between atoms: _249  and  _250
REMARK  108  A    between atoms: _250  and  _251
REMARK  109  A    between atoms: _260  and  _262
REMARK  110  A    between atoms: _262  and  _263
REMARK  111  A    between atoms: _262  and  _265
REMARK  112  A    between atoms: _265  and  _266
REMARK  113  A    between atoms: _271  and  _273
REMARK  114  A    between atoms: _273  and  _274
REMARK  115  A    between atoms: _273  and  _276
REMARK  116  A    between atoms: _276  and  _277
REMARK  117  A    between atoms: _277  and  _278
REMARK  118  A    between atoms: _283  and  _285
REMARK  119  A    between atoms: _285  and  _286
REMARK  120  A    between atoms: _285  and  _288
REMARK  121  A    between atoms: _288  and  _289
REMARK  122  A    between atoms: _292  and  _294
REMARK  123  A    between atoms: _294  and  _295
REMARK  124  A    between atoms: _294  and  _297
REMARK  125  A    between atoms: _297  and  _298
REMARK  126  A    between atoms: _301  and  _303
REMARK  127  A    between atoms: _303  and  _304
REMARK  128  A    between atoms: _303  and  _306
REMARK  129  A    between atoms: _306  and  _307
REMARK  130  A    between atoms: _310  and  _312
REMARK  131  A    between atoms: _312  and  _313
REMARK  132  A    between atoms: _312  and  _315
REMARK  133  A    between atoms: _315  and  _316
REMARK  134  A    between atoms: _319  and  _321
REMARK  135  A    between atoms: _321  and  _322
REMARK  136  A    between atoms: _324  and  _326
REMARK  137  A    between atoms: _326  and  _327
REMARK  138  A    between atoms: _330  and  _332
REMARK  139  A    between atoms: _332  and  _333
REMARK  140  A    between atoms: _332  and  _335
REMARK  141  A    between atoms: _335  and  _336
REMARK  142  A    between atoms: _339  and  _341
REMARK  143  A    between atoms: _341  and  _342
REMARK  144  A    between atoms: _341  and  _344
REMARK  145  A    between atoms: _344  and  _345
REMARK  146  A    between atoms: _348  and  _350
REMARK  147  A    between atoms: _350  and  _351
REMARK  148  A    between atoms: _350  and  _353
REMARK  149  A    between atoms: _353  and  _354
REMARK  150  A    between atoms: _357  and  _359
REMARK  151  A    between atoms: _359  and  _360
REMARK  152  A    between atoms: _359  and  _362
REMARK  153  A    between atoms: _365  and  _367
REMARK  154  A    between atoms: _367  and  _368
REMARK  155  A    between atoms: _367  and  _370
REMARK  156  A    between atoms: _370  and  _371
REMARK  157  A    between atoms: _371  and  _372
REMARK  158  A    between atoms: _372  and  _373
REMARK  159  A    between atoms: _373  and  _374
REMARK  160  A    between atoms: _378  and  _380
REMARK  161  A    between atoms: _380  and  _381
REMARK  162  A    between atoms: _380  and  _383
REMARK  163  A    between atoms: _383  and  _384
REMARK  164  A    between atoms: _384  and  _385
REMARK  165  A    between atoms: _387  and  _389
REMARK  166  A    between atoms: _389  and  _390
REMARK  167  A    between atoms: _389  and  _392
REMARK  168  A    between atoms: _392  and  _393
REMARK  169  A    between atoms: _396  and  _398
REMARK  170  A    between atoms: _398  and  _399
REMARK  171  A    between atoms: _401  and  _403
REMARK  172  A    between atoms: _403  and  _404
REMARK  173  A    between atoms: _406  and  _408
REMARK  174  A    between atoms: _408  and  _409
REMARK  175  A    between atoms: _408  and  _411
REMARK  176  A    between atoms: _411  and  _412
REMARK  177  A    between atoms: _415  and  _417
REMARK  178  A    between atoms: _417  and  _418
REMARK  179  A    between atoms: _420  and  _422
REMARK  180  A    between atoms: _422  and  _423
REMARK  181  A    between atoms: _425  and  _427
REMARK  182  A    between atoms: _427  and  _428
REMARK  183  A    between atoms: _427  and  _430
REMARK  184  A    between atoms: _430  and  _431
REMARK  185  A    between atoms: _434  and  _436
REMARK  186  A    between atoms: _436  and  _437
REMARK  187  A    between atoms: _436  and  _439
REMARK  188  A    between atoms: _439  and  _440
REMARK  189  A    between atoms: _444  and  _445
REMARK  190  A    between atoms: _450  and  _452
REMARK  191  A    between atoms: _452  and  _453
REMARK  192  A    between atoms: _452  and  _455
REMARK  193  A    between atoms: _455  and  _456
REMARK  194  A    between atoms: _460  and  _461
REMARK  195  A    between atoms: _466  and  _468
REMARK  196  A    between atoms: _468  and  _469
REMARK  197  A    between atoms: _468  and  _471
REMARK  198  A    between atoms: _474  and  _476
REMARK  199  A    between atoms: _476  and  _477
REMARK  200  A    between atoms: _476  and  _479
REMARK  201  A    between atoms: _479  and  _480
REMARK  202  A    between atoms: _485  and  _487
REMARK  203  A    between atoms: _487  and  _488
REMARK  204  A    between atoms: _487  and  _490
REMARK  205  A    between atoms: _490  and  _491
REMARK  206  A    between atoms: _494  and  _496
REMARK  207  A    between atoms: _496  and  _497
REMARK  208  A    between atoms: _496  and  _499
REMARK  209  A    between atoms: _499  and  _500
REMARK  210  A    between atoms: _503  and  _505
REMARK  211  A    between atoms: _505  and  _506
REMARK  212  A    between atoms: _508  and  _510
REMARK  213  A    between atoms: _510  and  _511
REMARK  214  A    between atoms: _510  and  _513
REMARK  215  A    between atoms: _513  and  _514
REMARK  216  A    between atoms: _514  and  _515
REMARK  217  A    between atoms: _515  and  _516
REMARK  218  A    between atoms: _525  and  _527
REMARK  219  A    between atoms: _527  and  _528
REMARK  220  A    between atoms: _527  and  _530
REMARK  221  A    between atoms: _530  and  _531
REMARK                            x       y       z     vdW  Elec       q    Type
REMARK                         _______ _______ _______ _____ _____    ______ ____
ROOT
ATOM      1  C   ILE A   5     -15.572 -13.427  11.535  0.00  0.00    +0.241 C 
ATOM      2  N   ILE A   6     -16.367 -12.577  12.151  0.00  0.00    -0.297 N 
ATOM      3  H   ILE A   6     -17.274 -12.944  12.503  0.00  0.00    +0.150 HD
ATOM      4  O   ILE A   5     -14.550 -13.082  10.947  0.00  0.00    -0.273 OA
ENDROOT
BRANCH   2   5
ATOM      5  CA  ILE A   6     -16.084 -11.168  12.381  0.00  0.00    +0.149 C 
BRANCH   5   6
ATOM      6  C   ILE A   6     -15.453 -11.088  13.775  0.00  0.00    +0.241 C 
ATOM      7  O   ILE A   6     -16.084 -11.356  14.777  0.00  0.00    -0.273 OA
ATOM      8  N   GLY A   7     -14.158 -10.771  13.767  0.00  0.00    -0.295 N 
ATOM      9  H   GLY A   7     -13.680 -10.582  12.863  0.00  0.00    +0.150 HD
BRANCH   8  10
ATOM     10  CA  GLY A   7     -13.422 -10.689  14.984  0.00  0.00    +0.176 C 
BRANCH  10  11
ATOM     11  C   GLY A   7     -13.357  -9.301  15.598  0.00  0.00    +0.243 C 
ATOM     12  N   ARG A   8     -12.646  -9.205  16.705  0.00  0.00    -0.297 N 
ATOM     13  H   ARG A   8     -12.090 -10.024  17.025  0.00  0.00    +0.150 HD
ATOM     14  O   GLY A   7     -13.906  -8.320  15.084  0.00  0.00    -0.273 OA
BRANCH  12  15
ATOM     15  CA  ARG A   8     -12.622  -7.989  17.483  0.00  0.00    +0.149 C 
BRANCH  15  16
ATOM     16  C   ARG A   8     -12.070  -6.809  16.722  0.00  0.00    +0.241 C 
ATOM     17  O   ARG A   8     -12.477  -5.699  16.991  0.00  0.00    -0.273 OA
ATOM     18  N   ASN A   9     -11.181  -7.044  15.780  0.00  0.00    -0.298 N 
ATOM     19  H   ASN A   9     -10.874  -8.015  15.571  0.00  0.00    +0.150 HD
BRANCH  18  20
ATOM     20  CA  ASN A   9     -10.631  -5.903  15.029  0.00  0.00    +0.146 C 
BRANCH  20  21
ATOM     21  C   ASN A   9     -11.716  -5.139  14.301  0.00  0.00    +0.227 C 
ATOM     22  O   ASN A   9     -11.513  -3.936  14.074  0.00  0.00    -0.286 OA
ENDBRANCH  20  21
BRANCH  20  23
ATOM     23  CB  ASN A   9      -9.568  -6.387  14.065  0.00  0.00    +0.112 C 
BRANCH  23  24
ATOM     24  CG  ASN A   9     -10.094  -7.097  12.841  0.00  0.00    +0.222 C 
ATOM     25  OD1 ASN A   9     -10.802  -8.086  12.938  0.00  0.00    -0.275 OA
ATOM     26  ND2 ASN A   9      -9.725  -6.599  11.663  0.00  0.00    -0.329 N 
ATOM     27 HD21 ASN A   9      -9.120  -5.754  11.622  0.00  0.00    +0.145 HD
ATOM     28 HD22 ASN A   9     -10.041  -7.055  10.784  0.00  0.00    +0.145 HD
ENDBRANCH  23  24
ENDBRANCH  20  23
ENDBRANCH  18  20
ENDBRANCH  15  16
BRANCH  15  29
ATOM     29  CB  ARG A   8     -11.792  -8.207  18.751  0.00  0.00    +0.033 C 
BRANCH  29  30
ATOM     30  CG  ARG A   8     -12.455  -9.175  19.723  0.00  0.00    +0.045 C 
BRANCH  30  31
ATOM     31  CD  ARG A   8     -11.742  -9.192  21.066  0.00  0.00    +0.174 C 
BRANCH  31  32
ATOM     32  NE  ARG A   8     -10.354  -9.620  20.947  0.00  0.00    -0.265 N 
ATOM     33  CZ  ARG A   8      -9.270  -8.873  20.920  0.00  0.00    +0.342 C 
ATOM     34  NH2 ARG A   8      -9.307  -7.554  21.038  0.00  0.00    -0.292 N 
ATOM     35 HH21 ARG A   8     -10.219  -7.068  21.158  0.00  0.00    +0.255 HD
ATOM     36 HH22 ARG A   8      -8.424  -7.005  21.011  0.00  0.00    +0.255 HD
ATOM     37  NH1 ARG A   8      -8.087  -9.470  20.795  0.00  0.00    -0.292 N 
ATOM     38 HH11 ARG A   8      -7.217  -8.901  20.771  0.00  0.00    +0.255 HD
ATOM     39 HH12 ARG A   8      -8.033 -10.506  20.721  0.00  0.00    +0.255 HD
ATOM     40  HE  ARG A   8     -10.200 -10.646  20.874  0.00  0.00    +0.259 HD
ENDBRANCH  31  32
ENDBRANCH  30  31
ENDBRANCH  29  30
ENDBRANCH  15  29
ENDBRANCH  12  15
ENDBRANCH  10  11
ENDBRANCH   8  10
ENDBRANCH   5   6
BRANCH   5  41
ATOM     41  CB  ILE A   6     -17.328 -10.286  12.310  0.00  0.00    +0.027 C 
ATOM     42  CG2 ILE A   6     -16.988  -8.839  12.574  0.00  0.00    +0.002 C 
BRANCH  41  43
ATOM     43  CG1 ILE A   6     -18.076 -10.367  10.965  0.00  0.00    +0.002 C 
ATOM     44  CD1 ILE A   6     -17.186 -10.216   9.729  0.00  0.00    +0.000 C 
ENDBRANCH  41  43
ENDBRANCH   5  41
ENDBRANCH   2   5
BRANCH   1  45
ATOM     45  CA  ILE A   5     -16.013 -14.892  11.547  0.00  0.00    +0.149 C 
BRANCH  45  48
ATOM     46  C   ASN A   4     -17.001 -16.022   9.631  0.00  0.00    +0.241 C 
ATOM     47  O   ASN A   4     -18.053 -16.123  10.213  0.00  0.00    -0.273 OA
ATOM     48  N   ILE A   5     -15.947 -15.445  10.190  0.00  0.00    -0.297 N 
ATOM     49  H   ILE A   5     -15.056 -15.383   9.657  0.00  0.00    +0.150 HD
BRANCH  46  50
ATOM     50  CA  ASN A   4     -16.869 -16.632   8.250  0.00  0.00    +0.158 C 
BRANCH  50  53
ATOM     51  C   VAL A   3     -16.639 -18.916   9.075  0.00  0.00    +0.241 C 
ATOM     52  O   VAL A   3     -15.601 -18.548   9.642  0.00  0.00    -0.273 OA
ATOM     53  N   ASN A   4     -17.311 -18.033   8.338  0.00  0.00    -0.297 N 
ATOM     54  H   ASN A   4     -18.159 -18.338   7.818  0.00  0.00    +0.150 HD
BRANCH  51  55
ATOM     55  CA  VAL A   3     -17.104 -20.348   9.278  0.00  0.00    +0.149 C 
BRANCH  55  57
ATOM     56  C   PRO A   2     -16.274 -22.491   8.363  0.00  0.00    +0.241 C 
ATOM     57  N   VAL A   3     -16.089 -21.326   8.959  0.00  0.00    -0.297 N 
ATOM     58  H   VAL A   3     -15.112 -21.089   9.226  0.00  0.00    +0.150 HD
ATOM     59  O   PRO A   2     -17.395 -22.864   7.983  0.00  0.00    -0.273 OA
BRANCH  56  65
ATOM     60  C   THR A   1     -13.319 -21.893   7.422  0.00  0.00    +0.244 C 
ATOM     61  N   PRO A   2     -13.761 -22.706   8.365  0.00  0.00    -0.272 N 
ATOM     62  CD  PRO A   2     -13.070 -23.120   9.594  0.00  0.00    +0.094 C 
ATOM     63  CG  PRO A   2     -14.073 -23.986  10.287  0.00  0.00    +0.024 C 
ATOM     64  CB  PRO A   2     -15.058 -24.437   9.288  0.00  0.00    +0.031 C 
ATOM     65  CA  PRO A   2     -15.052 -23.376   8.180  0.00  0.00    +0.152 C 
ATOM     66  O   THR A   1     -13.991 -21.707   6.392  0.00  0.00    -0.273 OA
BRANCH  60  67
ATOM     67  CA  THR A   1     -11.972 -21.197   7.603  0.00  0.00    +0.172 C 
BRANCH  67  68
ATOM     68  N   THR A   1     -11.231 -21.168   6.342  0.00  0.00    -0.236 NA
ATOM     69  H   THR A   1     -11.262 -20.319   5.742  0.00  0.00    +0.142 HD
ENDBRANCH  67  68
BRANCH  67  70
ATOM     70  CB  THR A   1     -12.188 -19.782   8.186  0.00  0.00    +0.135 C 
ATOM     71  CG2 THR A   1     -12.923 -18.892   7.204  0.00  0.00    +0.034 C 
BRANCH  70  72
ATOM     72  OG1 THR A   1     -12.983 -19.893   9.364  0.00  0.00    -0.383 OA
ATOM     73  HG1 THR A   1     -13.129 -18.992   9.748  0.00  0.00    +0.210 HD
ENDBRANCH  70  72
ENDBRANCH  67  70
ENDBRANCH  60  67
ENDBRANCH  56  65
ENDBRANCH  55  57
BRANCH  55  74
ATOM     74  CB  VAL A   3     -17.507 -20.492  10.770  0.00  0.00    +0.027 C 
ATOM     75  CG2 VAL A   3     -18.477 -19.399  11.192  0.00  0.00    +0.002 C 
ATOM     76  CG1 VAL A   3     -18.101 -21.875  11.036  0.00  0.00    +0.002 C 
ENDBRANCH  55  74
ENDBRANCH  51  55
ENDBRANCH  50  53
BRANCH  50  77
ATOM     77  CB  ASN A   4     -17.689 -15.852   7.228  0.00  0.00    +0.114 C 
BRANCH  77  78
ATOM     78  CG  ASN A   4     -17.560 -16.417   5.833  0.00  0.00    +0.222 C 
ATOM     79  OD1 ASN A   4     -16.508 -16.815   5.376  0.00  0.00    -0.275 OA
ATOM     80  ND2 ASN A   4     -18.674 -16.473   5.133  0.00  0.00    -0.329 N 
ATOM     81 HD21 ASN A   4     -19.564 -16.126   5.544  0.00  0.00    +0.145 HD
ATOM     82 HD22 ASN A   4     -18.663 -16.864   4.169  0.00  0.00    +0.145 HD
ENDBRANCH  77  78
ENDBRANCH  50  77
ENDBRANCH  46  50
ENDBRANCH  45  48
BRANCH  45  83
ATOM     83  CB  ILE A   5     -15.190 -15.657  12.602  0.00  0.00    +0.027 C 
ATOM     84  CG2 ILE A   5     -15.785 -17.038  12.807  0.00  0.00    +0.002 C 
BRANCH  83  85
ATOM     85  CG1 ILE A   5     -13.705 -15.769  12.311  0.00  0.00    +0.002 C 
ATOM     86  CD1 ILE A   5     -12.883 -16.647  13.234  0.00  0.00    +0.000 C 
ENDBRANCH  83  85
ENDBRANCH  45  83
ENDBRANCH   1  45
TORSDOF 32
REMARK  Name = ../refined-set-2016/4heg/4heg_pocket.pdb
REMARK  221 active torsions:
REMARK  status: ('A' for Active; 'I' for Inactive)
REMARK    1  A    between atoms: _1  and  _3
REMARK    2  A    between atoms: _3  and  _4
REMARK    3  A    between atoms: _3  and  _6
REMARK    4  A    between atoms: _6  and  _7
REMARK    5  A    between atoms: _7  and  _8
REMARK    6  A    between atoms: _13  and  _15
REMARK    7  A    between atoms: _15  and  _16
REMARK    8  A    between atoms: _15  and  _18
REMARK    9  A    between atoms: _18  and  _19
REMARK   10  A    between atoms: _22  and  _24
REMARK   11  A    between atoms: _24  and  _25
REMARK   12  A    between atoms: _24  and  _27
REMARK   13  A    between atoms: _27  and  _28
REMARK   14  A    between atoms: _31  and  _33
REMARK   15  A    between atoms: _33  and  _34
REMARK   16  A    between atoms: _33  and  _36
REMARK   17  A    between atoms: _36  and  _37
REMARK   18  A    between atoms: _40  and  _42
REMARK   19  A    between atoms: _42  and  _43
REMARK   20  A    between atoms: _42  and  _45
REMARK   21  A    between atoms: _45  and  _46
REMARK   22  A    between atoms: _49  and  _51
REMARK   23  A    between atoms: _51  and  _52
REMARK   24  A    between atoms: _54  and  _56
REMARK   25  A    between atoms: _56  and  _57
REMARK   26  A    between atoms: _60  and  _62
REMARK   27  A    between atoms: _62  and  _63
REMARK   28  A    between atoms: _62  and  _65
REMARK   29  A    between atoms: _65  and  _66
REMARK   30  A    between atoms: _69  and  _71
REMARK   31  A    between atoms: _71  and  _72
REMARK   32  A    between atoms: _71  and  _74
REMARK   33  A    between atoms: _74  and  _75
REMARK   34  A    between atoms: _78  and  _80
REMARK   35  A    between atoms: _80  and  _81
REMARK   36  A    between atoms: _80  and  _83
REMARK   37  A    between atoms: _83  and  _84
REMARK   38  A    between atoms: _87  and  _89
REMARK   39  A    between atoms: _89  and  _90
REMARK   40  A    between atoms: _89  and  _92
REMARK   41  A    between atoms: _95  and  _97
REMARK   42  A    between atoms: _97  and  _98
REMARK   43  A    between atoms: _97  and  _100
REMARK   44  A    between atoms: _100  and  _101
REMARK   45  A    between atoms: _101  and  _102
REMARK   46  A    between atoms: _102  and  _103
REMARK   47  A    between atoms: _103  and  _104
REMARK   48  A    between atoms: _108  and  _110
REMARK   49  A    between atoms: _110  and  _111
REMARK   50  A    between atoms: _110  and  _113
REMARK   51  A    between atoms: _113  and  _114
REMARK   52  A    between atoms: _114  and  _115
REMARK   53  A    between atoms: _117  and  _119
REMARK   54  A    between atoms: _119  and  _120
REMARK   55  A    between atoms: _119  and  _122
REMARK   56  A    between atoms: _122  and  _123
REMARK   57  A    between atoms: _126  and  _128
REMARK   58  A    between atoms: _128  and  _129
REMARK   59  A    between atoms: _131  and  _133
REMARK   60  A    between atoms: _133  and  _134
REMARK   61  A    between atoms: _136  and  _138
REMARK   62  A    between atoms: _138  and  _139
REMARK   63  A    between atoms: _138  and  _141
REMARK   64  A    between atoms: _141  and  _142
REMARK   65  A    between atoms: _145  and  _147
REMARK   66  A    between atoms: _147  and  _148
REMARK   67  A    between atoms: _150  and  _152
REMARK   68  A    between atoms: _152  and  _153
REMARK   69  A    between atoms: _155  and  _157
REMARK   70  A    between atoms: _157  and  _158
REMARK   71  A    between atoms: _157  and  _160
REMARK   72  A    between atoms: _160  and  _161
REMARK   73  A    between atoms: _167  and  _169
REMARK   74  A    between atoms: _169  and  _170
REMARK   75  A    between atoms: _169  and  _172
REMARK   76  A    between atoms: _172  and  _173
REMARK   77  A    between atoms: _176  and  _178
REMARK   78  A    between atoms: _178  and  _179
REMARK   79  A    between atoms: _178  and  _181
REMARK   80  A    between atoms: _181  and  _182
REMARK   81  A    between atoms: _185  and  _187
REMARK   82  A    between atoms: _187  and  _188
REMARK   83  A    between atoms: _187  and  _190
REMARK   84  A    between atoms: _190  and  _191
REMARK   85  A    between atoms: _195  and  _196
REMARK   86  A    between atoms: _201  and  _203
REMARK   87  A    between atoms: _203  and  _204
REMARK   88  A    between atoms: _203  and  _206
REMARK   89  A    between atoms: _209  and  _211
REMARK   90  A    between atoms: _211  and  _212
REMARK   91  A    between atoms: _211  and  _214
REMARK   92  A    between atoms: _214  and  _215
REMARK   93  A    between atoms: _220  and  _222
REMARK   94  A    between atoms: _222  and  _223
REMARK   95  A    between atoms: _222  and  _225
REMARK   96  A    between atoms: _225  and  _226
REMARK   97  A    between atoms: _229  and  _231
REMARK   98  A    between atoms: _231  and  _232
REMARK   99  A    between atoms: _231  and  _234
REMARK  100  A    between atoms: _234  and  _235
REMARK  101  A    between atoms: _238  and  _240
REMARK  102  A    between atoms: _240  and  _241
REMARK  103  A    between atoms: _243  and  _245
REMARK  104  A    between atoms: _245  and  _246
REMARK  105  A    between atoms: _245  and  _248
REMARK  106  A    between atoms: _248  and  _249
REMARK  107  A    between atoms: _249  and  _250
REMARK  108  A    between atoms: _250  and  _251
REMARK  109  A    between atoms: _260  and  _262
REMARK  110  A    between atoms: _262  and  _263
REMARK  111  A    between atoms: _262  and  _265
REMARK  112  A    between atoms: _265  and  _266
REMARK  113  A    between atoms: _271  and  _273
REMARK  114  A    between atoms: _273  and  _274
REMARK  115  A    between atoms: _273  and  _276
REMARK  116  A    between atoms: _276  and  _277
REMARK  117  A    between atoms: _277  and  _278
REMARK  118  A    between atoms: _283  and  _285
REMARK  119  A    between atoms: _285  and  _286
REMARK  120  A    between atoms: _285  and  _288
REMARK  121  A    between atoms: _288  and  _289
REMARK  122  A    between atoms: _292  and  _294
REMARK  123  A    between atoms: _294  and  _295
REMARK  124  A    between atoms: _294  and  _297
REMARK  125  A    between atoms: _297  and  _298
REMARK  126  A    between atoms: _301  and  _303
REMARK  127  A    between atoms: _303  and  _304
REMARK  128  A    between atoms: _303  and  _306
REMARK  129  A    between atoms: _306  and  _307
REMARK  130  A    between atoms: _310  and  _312
REMARK  131  A    between atoms: _312  and  _313
REMARK  132  A    between atoms: _312  and  _315
REMARK  133  A    between atoms: _315  and  _316
REMARK  134  A    between atoms: _319  and  _321
REMARK  135  A    between atoms: _321  and  _322
REMARK  136  A    between atoms: _324  and  _326
REMARK  137  A    between atoms: _326  and  _327
REMARK  138  A    between atoms: _330  and  _332
REMARK  139  A    between atoms: _332  and  _333
REMARK  140  A    between atoms: _332  and  _335
REMARK  141  A    between atoms: _335  and  _336
REMARK  142  A    between atoms: _339  and  _341
REMARK  143  A    between atoms: _341  and  _342
REMARK  144  A    between atoms: _341  and  _344
REMARK  145  A    between atoms: _344  and  _345
REMARK  146  A    between atoms: _348  and  _350
REMARK  147  A    between atoms: _350  and  _351
REMARK  148  A    between atoms: _350  and  _353
REMARK  149  A    between atoms: _353  and  _354
REMARK  150  A    between atoms: _357  and  _359
REMARK  151  A    between atoms: _359  and  _360
REMARK  152  A    between atoms: _359  and  _362
REMARK  153  A    between atoms: _365  and  _367
REMARK  154  A    between atoms: _367  and  _368
REMARK  155  A    between atoms: _367  and  _370
REMARK  156  A    between atoms: _370  and  _371
REMARK  157  A    between atoms: _371  and  _372
REMARK  158  A    between atoms: _372  and  _373
REMARK  159  A    between atoms: _373  and  _374
REMARK  160  A    between atoms: _378  and  _380
REMARK  161  A    between atoms: _380  and  _381
REMARK  162  A    between atoms: _380  and  _383
REMARK  163  A    between atoms: _383  and  _384
REMARK  164  A    between atoms: _384  and  _385
REMARK  165  A    between atoms: _387  and  _389
REMARK  166  A    between atoms: _389  and  _390
REMARK  167  A    between atoms: _389  and  _392
REMARK  168  A    between atoms: _392  and  _393
REMARK  169  A    between atoms: _396  and  _398
REMARK  170  A    between atoms: _398  and  _399
REMARK  171  A    between atoms: _401  and  _403
REMARK  172  A    between atoms: _403  and  _404
REMARK  173  A    between atoms: _406  and  _408
REMARK  174  A    between atoms: _408  and  _409
REMARK  175  A    between atoms: _408  and  _411
REMARK  176  A    between atoms: _411  and  _412
REMARK  177  A    between atoms: _415  and  _417
REMARK  178  A    between atoms: _417  and  _418
REMARK  179  A    between atoms: _420  and  _422
REMARK  180  A    between atoms: _422  and  _423
REMARK  181  A    between atoms: _425  and  _427
REMARK  182  A    between atoms: _427  and  _428
REMARK  183  A    between atoms: _427  and  _430
REMARK  184  A    between atoms: _430  and  _431
REMARK  185  A    between atoms: _434  and  _436
REMARK  186  A    between atoms: _436  and  _437
REMARK  187  A    between atoms: _436  and  _439
REMARK  188  A    between atoms: _439  and  _440
REMARK  189  A    between atoms: _444  and  _445
REMARK  190  A    between atoms: _450  and  _452
REMARK  191  A    between atoms: _452  and  _453
REMARK  192  A    between atoms: _452  and  _455
REMARK  193  A    between atoms: _455  and  _456
REMARK  194  A    between atoms: _460  and  _461
REMARK  195  A    between atoms: _466  and  _468
REMARK  196  A    between atoms: _468  and  _469
REMARK  197  A    between atoms: _468  and  _471
REMARK  198  A    between atoms: _474  and  _476
REMARK  199  A    between atoms: _476  and  _477
REMARK  200  A    between atoms: _476  and  _479
REMARK  201  A    between atoms: _479  and  _480
REMARK  202  A    between atoms: _485  and  _487
REMARK  203  A    between atoms: _487  and  _488
REMARK  204  A    between atoms: _487  and  _490
REMARK  205  A    between atoms: _490  and  _491
REMARK  206  A    between atoms: _494  and  _496
REMARK  207  A    between atoms: _496  and  _497
REMARK  208  A    between atoms: _496  and  _499
REMARK  209  A    between atoms: _499  and  _500
REMARK  210  A    between atoms: _503  and  _505
REMARK  211  A    between atoms: _505  and  _506
REMARK  212  A    between atoms: _508  and  _510
REMARK  213  A    between atoms: _510  and  _511
REMARK  214  A    between atoms: _510  and  _513
REMARK  215  A    between atoms: _513  and  _514
REMARK  216  A    between atoms: _514  and  _515
REMARK  217  A    between atoms: _515  and  _516
REMARK  218  A    between atoms: _525  and  _527
REMARK  219  A    between atoms: _527  and  _528
REMARK  220  A    between atoms: _527  and  _530
REMARK  221  A    between atoms: _530  and  _531
REMARK                            x       y       z     vdW  Elec       q    Type
REMARK                         _______ _______ _______ _____ _____    ______ ____
ROOT
ATOM      1  CB  GLN A   1      -8.542 -11.003  24.858  0.00  0.00    +0.035 C 
ENDROOT
BRANCH   1   2
ATOM      2  CA  GLN A   1      -9.517  -9.862  24.642  0.00  0.00    +0.134 C 
BRANCH   2   3
ATOM      3  N   GLN A   1      -8.797  -8.613  24.513  0.00  0.00    -0.239 NA
ATOM      4  H   GLN A   1      -7.757  -8.607  24.536  0.00  0.00    +0.142 HD
ENDBRANCH   2   3
BRANCH   2   5
ATOM      5  C   GLN A   1     -10.448  -9.822  25.858  0.00  0.00    +0.224 C 
ATOM      6  O   GLN A   1     -10.046  -9.336  26.916  0.00  0.00    -0.287 OA
ENDBRANCH   2   5
ENDBRANCH   1   2
BRANCH   1   7
ATOM      7  CG  GLN A   1      -7.782 -11.372  23.612  0.00  0.00    +0.087 C 
BRANCH   7   8
ATOM      8  CD  GLN A   1      -7.049 -12.687  23.753  0.00  0.00    +0.219 C 
ATOM      9  OE1 GLN A   1      -6.723 -13.165  24.826  0.00  0.00    -0.275 OA
ATOM     10  NE2 GLN A   1      -6.795 -13.280  22.602  0.00  0.00    -0.329 N 
ATOM     11 HE21 GLN A   1      -6.297 -14.193  22.586  0.00  0.00    +0.145 HD
ATOM     12 HE22 GLN A   1      -7.092 -12.834  21.711  0.00  0.00    +0.145 HD
ENDBRANCH   7   8
ENDBRANCH   1   7
TORSDOF 5
REMARK  Name = ../refined-set-2016/4heg/4heg_pocket.pdb
REMARK  221 active torsions:
REMARK  status: ('A' for Active; 'I' for Inactive)
REMARK    1  A    between atoms: _1  and  _3
REMARK    2  A    between atoms: _3  and  _4
REMARK    3  A    between atoms: _3  and  _6
REMARK    4  A    between atoms: _6  and  _7
REMARK    5  A    between atoms: _7  and  _8
REMARK    6  A    between atoms: _13  and  _15
REMARK    7  A    between atoms: _15  and  _16
REMARK    8  A    between atoms: _15  and  _18
REMARK    9  A    between atoms: _18  and  _19
REMARK   10  A    between atoms: _22  and  _24
REMARK   11  A    between atoms: _24  and  _25
REMARK   12  A    between atoms: _24  and  _27
REMARK   13  A    between atoms: _27  and  _28
REMARK   14  A    between atoms: _31  and  _33
REMARK   15  A    between atoms: _33  and  _34
REMARK   16  A    between atoms: _33  and  _36
REMARK   17  A    between atoms: _36  and  _37
REMARK   18  A    between atoms: _40  and  _42
REMARK   19  A    between atoms: _42  and  _43
REMARK   20  A    between atoms: _42  and  _45
REMARK   21  A    between atoms: _45  and  _46
REMARK   22  A    between atoms: _49  and  _51
REMARK   23  A    between atoms: _51  and  _52
REMARK   24  A    between atoms: _54  and  _56
REMARK   25  A    between atoms: _56  and  _57
REMARK   26  A    between atoms: _60  and  _62
REMARK   27  A    between atoms: _62  and  _63
REMARK   28  A    between atoms: _62  and  _65
REMARK   29  A    between atoms: _65  and  _66
REMARK   30  A    between atoms: _69  and  _71
REMARK   31  A    between atoms: _71  and  _72
REMARK   32  A    between atoms: _71  and  _74
REMARK   33  A    between atoms: _74  and  _75
REMARK   34  A    between atoms: _78  and  _80
REMARK   35  A    between atoms: _80  and  _81
REMARK   36  A    between atoms: _80  and  _83
REMARK   37  A    between atoms: _83  and  _84
REMARK   38  A    between atoms: _87  and  _89
REMARK   39  A    between atoms: _89  and  _90
REMARK   40  A    between atoms: _89  and  _92
REMARK   41  A    between atoms: _95  and  _97
REMARK   42  A    between atoms: _97  and  _98
REMARK   43  A    between atoms: _97  and  _100
REMARK   44  A    between atoms: _100  and  _101
REMARK   45  A    between atoms: _101  and  _102
REMARK   46  A    between atoms: _102  and  _103
REMARK   47  A    between atoms: _103  and  _104
REMARK   48  A    between atoms: _108  and  _110
REMARK   49  A    between atoms: _110  and  _111
REMARK   50  A    between atoms: _110  and  _113
REMARK   51  A    between atoms: _113  and  _114
REMARK   52  A    between atoms: _114  and  _115
REMARK   53  A    between atoms: _117  and  _119
REMARK   54  A    between atoms: _119  and  _120
REMARK   55  A    between atoms: _119  and  _122
REMARK   56  A    between atoms: _122  and  _123
REMARK   57  A    between atoms: _126  and  _128
REMARK   58  A    between atoms: _128  and  _129
REMARK   59  A    between atoms: _131  and  _133
REMARK   60  A    between atoms: _133  and  _134
REMARK   61  A    between atoms: _136  and  _138
REMARK   62  A    between atoms: _138  and  _139
REMARK   63  A    between atoms: _138  and  _141
REMARK   64  A    between atoms: _141  and  _142
REMARK   65  A    between atoms: _145  and  _147
REMARK   66  A    between atoms: _147  and  _148
REMARK   67  A    between atoms: _150  and  _152
REMARK   68  A    between atoms: _152  and  _153
REMARK   69  A    between atoms: _155  and  _157
REMARK   70  A    between atoms: _157  and  _158
REMARK   71  A    between atoms: _157  and  _160
REMARK   72  A    between atoms: _160  and  _161
REMARK   73  A    between atoms: _167  and  _169
REMARK   74  A    between atoms: _169  and  _170
REMARK   75  A    between atoms: _169  and  _172
REMARK   76  A    between atoms: _172  and  _173
REMARK   77  A    between atoms: _176  and  _178
REMARK   78  A    between atoms: _178  and  _179
REMARK   79  A    between atoms: _178  and  _181
REMARK   80  A    between atoms: _181  and  _182
REMARK   81  A    between atoms: _185  and  _187
REMARK   82  A    between atoms: _187  and  _188
REMARK   83  A    between atoms: _187  and  _190
REMARK   84  A    between atoms: _190  and  _191
REMARK   85  A    between atoms: _195  and  _196
REMARK   86  A    between atoms: _201  and  _203
REMARK   87  A    between atoms: _203  and  _204
REMARK   88  A    between atoms: _203  and  _206
REMARK   89  A    between atoms: _209  and  _211
REMARK   90  A    between atoms: _211  and  _212
REMARK   91  A    between atoms: _211  and  _214
REMARK   92  A    between atoms: _214  and  _215
REMARK   93  A    between atoms: _220  and  _222
REMARK   94  A    between atoms: _222  and  _223
REMARK   95  A    between atoms: _222  and  _225
REMARK   96  A    between atoms: _225  and  _226
REMARK   97  A    between atoms: _229  and  _231
REMARK   98  A    between atoms: _231  and  _232
REMARK   99  A    between atoms: _231  and  _234
REMARK  100  A    between atoms: _234  and  _235
REMARK  101  A    between atoms: _238  and  _240
REMARK  102  A    between atoms: _240  and  _241
REMARK  103  A    between atoms: _243  and  _245
REMARK  104  A    between atoms: _245  and  _246
REMARK  105  A    between atoms: _245  and  _248
REMARK  106  A    between atoms: _248  and  _249
REMARK  107  A    between atoms: _249  and  _250
REMARK  108  A    between atoms: _250  and  _251
REMARK  109  A    between atoms: _260  and  _262
REMARK  110  A    between atoms: _262  and  _263
REMARK  111  A    between atoms: _262  and  _265
REMARK  112  A    between atoms: _265  and  _266
REMARK  113  A    between atoms: _271  and  _273
REMARK  114  A    between atoms: _273  and  _274
REMARK  115  A    between atoms: _273  and  _276
REMARK  116  A    between atoms: _276  and  _277
REMARK  117  A    between atoms: _277  and  _278
REMARK  118  A    between atoms: _283  and  _285
REMARK  119  A    between atoms: _285  and  _286
REMARK  120  A    between atoms: _285  and  _288
REMARK  121  A    between atoms: _288  and  _289
REMARK  122  A    between atoms: _292  and  _294
REMARK  123  A    between atoms: _294  and  _295
REMARK  124  A    between atoms: _294  and  _297
REMARK  125  A    between atoms: _297  and  _298
REMARK  126  A    between atoms: _301  and  _303
REMARK  127  A    between atoms: _303  and  _304
REMARK  128  A    between atoms: _303  and  _306
REMARK  129  A    between atoms: _306  and  _307
REMARK  130  A    between atoms: _310  and  _312
REMARK  131  A    between atoms: _312  and  _313
REMARK  132  A    between atoms: _312  and  _315
REMARK  133  A    between atoms: _315  and  _316
REMARK  134  A    between atoms: _319  and  _321
REMARK  135  A    between atoms: _321  and  _322
REMARK  136  A    between atoms: _324  and  _326
REMARK  137  A    between atoms: _326  and  _327
REMARK  138  A    between atoms: _330  and  _332
REMARK  139  A    between atoms: _332  and  _333
REMARK  140  A    between atoms: _332  and  _335
REMARK  141  A    between atoms: _335  and  _336
REMARK  142  A    between atoms: _339  and  _341
REMARK  143  A    between atoms: _341  and  _342
REMARK  144  A    between atoms: _341  and  _344
REMARK  145  A    between atoms: _344  and  _345
REMARK  146  A    between atoms: _348  and  _350
REMARK  147  A    between atoms: _350  and  _351
REMARK  148  A    between atoms: _350  and  _353
REMARK  149  A    between atoms: _353  and  _354
REMARK  150  A    between atoms: _357  and  _359
REMARK  151  A    between atoms: _359  and  _360
REMARK  152  A    between atoms: _359  and  _362
REMARK  153  A    between atoms: _365  and  _367
REMARK  154  A    between atoms: _367  and  _368
REMARK  155  A    between atoms: _367  and  _370
REMARK  156  A    between atoms: _370  and  _371
REMARK  157  A    between atoms: _371  and  _372
REMARK  158  A    between atoms: _372  and  _373
REMARK  159  A    between atoms: _373  and  _374
REMARK  160  A    between atoms: _378  and  _380
REMARK  161  A    between atoms: _380  and  _381
REMARK  162  A    between atoms: _380  and  _383
REMARK  163  A    between atoms: _383  and  _384
REMARK  164  A    between atoms: _384  and  _385
REMARK  165  A    between atoms: _387  and  _389
REMARK  166  A    between atoms: _389  and  _390
REMARK  167  A    between atoms: _389  and  _392
REMARK  168  A    between atoms: _392  and  _393
REMARK  169  A    between atoms: _396  and  _398
REMARK  170  A    between atoms: _398  and  _399
REMARK  171  A    between atoms: _401  and  _403
REMARK  172  A    between atoms: _403  and  _404
REMARK  173  A    between atoms: _406  and  _408
REMARK  174  A    between atoms: _408  and  _409
REMARK  175  A    between atoms: _408  and  _411
REMARK  176  A    between atoms: _411  and  _412
REMARK  177  A    between atoms: _415  and  _417
REMARK  178  A    between atoms: _417  and  _418
REMARK  179  A    between atoms: _420  and  _422
REMARK  180  A    between atoms: _422  and  _423
REMARK  181  A    between atoms: _425  and  _427
REMARK  182  A    between atoms: _427  and  _428
REMARK  183  A    between atoms: _427  and  _430
REMARK  184  A    between atoms: _430  and  _431
REMARK  185  A    between atoms: _434  and  _436
REMARK  186  A    between atoms: _436  and  _437
REMARK  187  A    between atoms: _436  and  _439
REMARK  188  A    between atoms: _439  and  _440
REMARK  189  A    between atoms: _444  and  _445
REMARK  190  A    between atoms: _450  and  _452
REMARK  191  A    between atoms: _452  and  _453
REMARK  192  A    between atoms: _452  and  _455
REMARK  193  A    between atoms: _455  and  _456
REMARK  194  A    between atoms: _460  and  _461
REMARK  195  A    between atoms: _466  and  _468
REMARK  196  A    between atoms: _468  and  _469
REMARK  197  A    between atoms: _468  and  _471
REMARK  198  A    between atoms: _474  and  _476
REMARK  199  A    between atoms: _476  and  _477
REMARK  200  A    between atoms: _476  and  _479
REMARK  201  A    between atoms: _479  and  _480
REMARK  202  A    between atoms: _485  and  _487
REMARK  203  A    between atoms: _487  and  _488
REMARK  204  A    between atoms: _487  and  _490
REMARK  205  A    between atoms: _490  and  _491
REMARK  206  A    between atoms: _494  and  _496
REMARK  207  A    between atoms: _496  and  _497
REMARK  208  A    between atoms: _496  and  _499
REMARK  209  A    between atoms: _499  and  _500
REMARK  210  A    between atoms: _503  and  _505
REMARK  211  A    between atoms: _505  and  _506
REMARK  212  A    between atoms: _508  and  _510
REMARK  213  A    between atoms: _510  and  _511
REMARK  214  A    between atoms: _510  and  _513
REMARK  215  A    between atoms: _513  and  _514
REMARK  216  A    between atoms: _514  and  _515
REMARK  217  A    between atoms: _515  and  _516
REMARK  218  A    between atoms: _525  and  _527
REMARK  219  A    between atoms: _527  and  _528
REMARK  220  A    between atoms: _527  and  _530
REMARK  221  A    between atoms: _530  and  _531
REMARK                            x       y       z     vdW  Elec       q    Type
REMARK                         _______ _______ _______ _____ _____    ______ ____
ROOT
ATOM      1  C   GLY A   5     -18.225 -19.115  18.750  0.00  0.00    +0.243 C 
ATOM      2  N   ALA A   6     -18.280 -19.450  20.036  0.00  0.00    -0.297 N 
ATOM      3  H   ALA A   6     -18.379 -18.676  20.724  0.00  0.00    +0.150 HD
ATOM      4  O   GLY A   5     -18.087 -19.947  17.873  0.00  0.00    -0.273 OA
ENDROOT
BRANCH   2   5
ATOM      5  CA  ALA A   6     -18.215 -20.783  20.556  0.00  0.00    +0.149 C 
ATOM      6  CB  ALA A   6     -17.213 -20.871  21.728  0.00  0.00    +0.031 C 
BRANCH   5   7
ATOM      7  C   ALA A   6     -19.588 -21.248  21.036  0.00  0.00    +0.241 C 
ATOM      8  O   ALA A   6     -20.192 -20.625  21.895  0.00  0.00    -0.273 OA
ATOM      9  N   ASP A   7     -20.133 -22.343  20.496  0.00  0.00    -0.297 N 
ATOM     10  H   ASP A   7     -19.636 -22.824  19.719  0.00  0.00    +0.150 HD
BRANCH   9  11
ATOM     11  CA  ASP A   7     -21.394 -22.878  20.961  0.00  0.00    +0.160 C 
BRANCH  11  12
ATOM     12  C   ASP A   7     -21.251 -23.412  22.388  0.00  0.00    +0.241 C 
ATOM     13  O   ASP A   7     -22.165 -23.301  23.198  0.00  0.00    -0.273 OA
ATOM     14  N   ASP A   8     -20.086 -24.017  22.624  0.00  0.00    -0.297 N 
ATOM     15  H   ASP A   8     -19.336 -23.964  21.905  0.00  0.00    +0.150 HD
BRANCH  14  16
ATOM     16  CA  ASP A   8     -19.831 -24.747  23.852  0.00  0.00    +0.160 C 
BRANCH  16  17
ATOM     17  C   ASP A   8     -18.667 -24.169  24.637  0.00  0.00    +0.241 C 
ATOM     18  N   THR A   9     -18.607 -24.485  25.901  0.00  0.00    -0.295 N 
ATOM     19  H   THR A   9     -19.388 -25.052  26.287  0.00  0.00    +0.150 HD
ATOM     20  O   ASP A   8     -17.821 -23.465  24.076  0.00  0.00    -0.273 OA
BRANCH  18  21
ATOM     21  CA  THR A   9     -17.522 -24.105  26.831  0.00  0.00    +0.176 C 
BRANCH  21  22
ATOM     22  C   THR A   9     -16.467 -25.190  26.833  0.00  0.00    +0.243 C 
ATOM     23  O   THR A   9     -16.787 -26.365  27.051  0.00  0.00    -0.273 OA
ATOM     24  N   VAL A  10     -15.214 -24.791  26.595  0.00  0.00    -0.298 N 
ATOM     25  H   VAL A  10     -15.021 -23.778  26.464  0.00  0.00    +0.150 HD
BRANCH  24  26
ATOM     26  CA  VAL A  10     -14.115 -25.737  26.515  0.00  0.00    +0.137 C 
BRANCH  26  27
ATOM     27  CB  VAL A  10     -13.574 -25.880  25.083  0.00  0.00    +0.026 C 
ATOM     28  CG2 VAL A  10     -12.746 -27.154  25.001  0.00  0.00    +0.002 C 
ATOM     29  CG1 VAL A  10     -14.720 -25.830  24.079  0.00  0.00    +0.002 C 
ENDBRANCH  26  27
BRANCH  26  30
ATOM     30  C   VAL A  10     -12.983 -25.254  27.410  0.00  0.00    +0.227 C 
ATOM     31  O   VAL A  10     -12.547 -24.113  27.281  0.00  0.00    -0.286 OA
ENDBRANCH  26  30
ENDBRANCH  24  26
ENDBRANCH  21  22
BRANCH  21  32
ATOM     32  CB  THR A   9     -18.151 -23.878  28.210  0.00  0.00    +0.137 C 
ATOM     33  CG2 THR A   9     -17.073 -23.628  29.270  0.00  0.00    +0.034 C 
BRANCH  32  34
ATOM     34  OG1 THR A   9     -19.016 -22.732  28.120  0.00  0.00    -0.382 OA
ATOM     35  HG1 THR A   9     -19.721 -22.904  27.446  0.00  0.00    +0.210 HD
ENDBRANCH  32  34
ENDBRANCH  21  32
ENDBRANCH  18  21
ENDBRANCH  16  17
BRANCH  16  36
ATOM     36  CB  ASP A   8     -19.519 -26.195  23.494  0.00  0.00    +0.143 C 
BRANCH  36  37
ATOM     37  CG  ASP A   8     -20.648 -26.914  22.784  0.00  0.00    +0.367 C 
ATOM     38  OD2 ASP A   8     -21.830 -26.617  22.978  0.00  0.00    -0.246 OA
ATOM     39  OD1 ASP A   8     -20.329 -27.835  21.984  0.00  0.00    -0.246 OA
ENDBRANCH  36  37
ENDBRANCH  16  36
ENDBRANCH  14  16
ENDBRANCH  11  12
BRANCH  11  40
ATOM     40  CB  ASP A   7     -21.833 -24.008  20.071  0.00  0.00    +0.143 C 
BRANCH  40  41
ATOM     41  CG  ASP A   7     -22.144 -23.705  18.626  0.00  0.00    +0.367 C 
ATOM     42  OD2 ASP A   7     -22.318 -22.550  18.236  0.00  0.00    -0.246 OA
ATOM     43  OD1 ASP A   7     -22.253 -24.701  17.838  0.00  0.00    -0.246 OA
ENDBRANCH  40  41
ENDBRANCH  11  40
ENDBRANCH   9  11
ENDBRANCH   5   7
ENDBRANCH   2   5
BRANCH   1  44
ATOM     44  CA  GLY A   5     -18.345 -17.644  18.429  0.00  0.00    +0.176 C 
BRANCH  44  47
ATOM     45  C   THR A   4     -19.707 -16.471  20.094  0.00  0.00    +0.243 C 
ATOM     46  O   THR A   4     -20.765 -16.919  19.608  0.00  0.00    -0.273 OA
ATOM     47  N   GLY A   5     -18.532 -16.766  19.565  0.00  0.00    -0.295 N 
ATOM     48  H   GLY A   5     -17.686 -16.339  19.993  0.00  0.00    +0.150 HD
BRANCH  45  49
ATOM     49  CA  THR A   4     -19.754 -15.582  21.330  0.00  0.00    +0.176 C 
BRANCH  49  52
ATOM     50  C   ASP A   3     -17.909 -16.511  22.589  0.00  0.00    +0.241 C 
ATOM     51  O   ASP A   3     -18.450 -17.610  22.619  0.00  0.00    -0.273 OA
ATOM     52  N   THR A   4     -18.459 -15.466  21.963  0.00  0.00    -0.295 N 
ATOM     53  H   THR A   4     -17.950 -14.560  21.931  0.00  0.00    +0.150 HD
BRANCH  50  54
ATOM     54  CA  ASP A   3     -16.581 -16.256  23.250  0.00  0.00    +0.160 C 
BRANCH  54  56
ATOM     55  C   LEU A   2     -16.291 -14.843  25.246  0.00  0.00    +0.241 C 
ATOM     56  N   ASP A   3     -16.671 -15.971  24.671  0.00  0.00    -0.297 N 
ATOM     57  H   ASP A   3     -17.065 -16.712  25.284  0.00  0.00    +0.150 HD
ATOM     58  O   LEU A   2     -16.186 -13.763  24.667  0.00  0.00    -0.273 OA
BRANCH  55  59
ATOM     59  CA  LEU A   2     -15.985 -14.920  26.733  0.00  0.00    +0.149 C 
BRANCH  59  61
ATOM     60  C   LEU A   1     -13.825 -16.029  26.909  0.00  0.00    +0.238 C 
ATOM     61  N   LEU A   2     -14.546 -14.910  26.974  0.00  0.00    -0.297 N 
ATOM     62  H   LEU A   2     -14.074 -14.012  27.201  0.00  0.00    +0.150 HD
ATOM     63  O   LEU A   1     -14.364 -17.109  26.649  0.00  0.00    -0.274 OA
BRANCH  60  64
ATOM     64  CA  LEU A   1     -12.319 -15.916  27.127  0.00  0.00    +0.145 C 
BRANCH  64  65
ATOM     65  N   LEU A   1     -11.882 -16.859  28.157  0.00  0.00    -0.238 NA
ATOM     66  H   LEU A   1     -11.707 -17.844  27.871  0.00  0.00    +0.142 HD
ENDBRANCH  64  65
BRANCH  64  67
ATOM     67  CB  LEU A   1     -11.443 -16.287  25.928  0.00  0.00    +0.026 C 
BRANCH  67  68
ATOM     68  CG  LEU A   1     -11.609 -15.527  24.640  0.00  0.00    +0.002 C 
ATOM     69  CD2 LEU A   1     -11.023 -14.134  24.801  0.00  0.00    +0.000 C 
ATOM     70  CD1 LEU A   1     -10.977 -16.274  23.471  0.00  0.00    +0.000 C 
ENDBRANCH  67  68
ENDBRANCH  64  67
ENDBRANCH  60  64
ENDBRANCH  59  61
BRANCH  59  71
ATOM     71  CB  LEU A   2     -16.637 -13.754  27.470  0.00  0.00    +0.029 C 
BRANCH  71  72
ATOM     72  CG  LEU A   2     -16.638 -13.806  28.997  0.00  0.00    +0.002 C 
ATOM     73  CD2 LEU A   2     -17.597 -12.783  29.576  0.00  0.00    +0.000 C 
ATOM     74  CD1 LEU A   2     -17.014 -15.177  29.533  0.00  0.00    +0.000 C 
ENDBRANCH  71  72
ENDBRANCH  59  71
ENDBRANCH  55  59
ENDBRANCH  54  56
BRANCH  54  75
ATOM     75  CB  ASP A   3     -15.650 -17.483  23.106  0.00  0.00    +0.143 C 
BRANCH  75  76
ATOM     76  CG  ASP A   3     -15.269 -17.779  21.668  0.00  0.00    +0.367 C 
ATOM     77  OD2 ASP A   3     -14.480 -18.716  21.426  0.00  0.00    -0.246 OA
ATOM     78  OD1 ASP A   3     -15.804 -17.029  20.798  0.00  0.00    -0.246 OA
ENDBRANCH  75  76
ENDBRANCH  54  75
ENDBRANCH  50  54
ENDBRANCH  49  52
BRANCH  49  79
ATOM     79  CB  THR A   4     -20.303 -14.200  20.915  0.00  0.00    +0.137 C 
ATOM     80  CG2 THR A   4     -20.565 -13.317  22.126  0.00  0.00    +0.034 C 
BRANCH  79  81
ATOM     81  OG1 THR A   4     -19.372 -13.541  20.045  0.00  0.00    -0.382 OA
ATOM     82  HG1 THR A   4     -19.232 -14.092  19.235  0.00  0.00    +0.210 HD
ENDBRANCH  79  81
ENDBRANCH  49  79
ENDBRANCH  45  49
ENDBRANCH  44  47
ENDBRANCH   1  44
TORSDOF 35
REMARK  Name = ../refined-set-2016/4heg/4heg_pocket.pdb
REMARK  221 active torsions:
REMARK  status: ('A' for Active; 'I' for Inactive)
REMARK    1  A    between atoms: _1  and  _3
REMARK    2  A    between atoms: _3  and  _4
REMARK    3  A    between atoms: _3  and  _6
REMARK    4  A    between atoms: _6  and  _7
REMARK    5  A    between atoms: _7  and  _8
REMARK    6  A    between atoms: _13  and  _15
REMARK    7  A    between atoms: _15  and  _16
REMARK    8  A    between atoms: _15  and  _18
REMARK    9  A    between atoms: _18  and  _19
REMARK   10  A    between atoms: _22  and  _24
REMARK   11  A    between atoms: _24  and  _25
REMARK   12  A    between atoms: _24  and  _27
REMARK   13  A    between atoms: _27  and  _28
REMARK   14  A    between atoms: _31  and  _33
REMARK   15  A    between atoms: _33  and  _34
REMARK   16  A    between atoms: _33  and  _36
REMARK   17  A    between atoms: _36  and  _37
REMARK   18  A    between atoms: _40  and  _42
REMARK   19  A    between atoms: _42  and  _43
REMARK   20  A    between atoms: _42  and  _45
REMARK   21  A    between atoms: _45  and  _46
REMARK   22  A    between atoms: _49  and  _51
REMARK   23  A    between atoms: _51  and  _52
REMARK   24  A    between atoms: _54  and  _56
REMARK   25  A    between atoms: _56  and  _57
REMARK   26  A    between atoms: _60  and  _62
REMARK   27  A    between atoms: _62  and  _63
REMARK   28  A    between atoms: _62  and  _65
REMARK   29  A    between atoms: _65  and  _66
REMARK   30  A    between atoms: _69  and  _71
REMARK   31  A    between atoms: _71  and  _72
REMARK   32  A    between atoms: _71  and  _74
REMARK   33  A    between atoms: _74  and  _75
REMARK   34  A    between atoms: _78  and  _80
REMARK   35  A    between atoms: _80  and  _81
REMARK   36  A    between atoms: _80  and  _83
REMARK   37  A    between atoms: _83  and  _84
REMARK   38  A    between atoms: _87  and  _89
REMARK   39  A    between atoms: _89  and  _90
REMARK   40  A    between atoms: _89  and  _92
REMARK   41  A    between atoms: _95  and  _97
REMARK   42  A    between atoms: _97  and  _98
REMARK   43  A    between atoms: _97  and  _100
REMARK   44  A    between atoms: _100  and  _101
REMARK   45  A    between atoms: _101  and  _102
REMARK   46  A    between atoms: _102  and  _103
REMARK   47  A    between atoms: _103  and  _104
REMARK   48  A    between atoms: _108  and  _110
REMARK   49  A    between atoms: _110  and  _111
REMARK   50  A    between atoms: _110  and  _113
REMARK   51  A    between atoms: _113  and  _114
REMARK   52  A    between atoms: _114  and  _115
REMARK   53  A    between atoms: _117  and  _119
REMARK   54  A    between atoms: _119  and  _120
REMARK   55  A    between atoms: _119  and  _122
REMARK   56  A    between atoms: _122  and  _123
REMARK   57  A    between atoms: _126  and  _128
REMARK   58  A    between atoms: _128  and  _129
REMARK   59  A    between atoms: _131  and  _133
REMARK   60  A    between atoms: _133  and  _134
REMARK   61  A    between atoms: _136  and  _138
REMARK   62  A    between atoms: _138  and  _139
REMARK   63  A    between atoms: _138  and  _141
REMARK   64  A    between atoms: _141  and  _142
REMARK   65  A    between atoms: _145  and  _147
REMARK   66  A    between atoms: _147  and  _148
REMARK   67  A    between atoms: _150  and  _152
REMARK   68  A    between atoms: _152  and  _153
REMARK   69  A    between atoms: _155  and  _157
REMARK   70  A    between atoms: _157  and  _158
REMARK   71  A    between atoms: _157  and  _160
REMARK   72  A    between atoms: _160  and  _161
REMARK   73  A    between atoms: _167  and  _169
REMARK   74  A    between atoms: _169  and  _170
REMARK   75  A    between atoms: _169  and  _172
REMARK   76  A    between atoms: _172  and  _173
REMARK   77  A    between atoms: _176  and  _178
REMARK   78  A    between atoms: _178  and  _179
REMARK   79  A    between atoms: _178  and  _181
REMARK   80  A    between atoms: _181  and  _182
REMARK   81  A    between atoms: _185  and  _187
REMARK   82  A    between atoms: _187  and  _188
REMARK   83  A    between atoms: _187  and  _190
REMARK   84  A    between atoms: _190  and  _191
REMARK   85  A    between atoms: _195  and  _196
REMARK   86  A    between atoms: _201  and  _203
REMARK   87  A    between atoms: _203  and  _204
REMARK   88  A    between atoms: _203  and  _206
REMARK   89  A    between atoms: _209  and  _211
REMARK   90  A    between atoms: _211  and  _212
REMARK   91  A    between atoms: _211  and  _214
REMARK   92  A    between atoms: _214  and  _215
REMARK   93  A    between atoms: _220  and  _222
REMARK   94  A    between atoms: _222  and  _223
REMARK   95  A    between atoms: _222  and  _225
REMARK   96  A    between atoms: _225  and  _226
REMARK   97  A    between atoms: _229  and  _231
REMARK   98  A    between atoms: _231  and  _232
REMARK   99  A    between atoms: _231  and  _234
REMARK  100  A    between atoms: _234  and  _235
REMARK  101  A    between atoms: _238  and  _240
REMARK  102  A    between atoms: _240  and  _241
REMARK  103  A    between atoms: _243  and  _245
REMARK  104  A    between atoms: _245  and  _246
REMARK  105  A    between atoms: _245  and  _248
REMARK  106  A    between atoms: _248  and  _249
REMARK  107  A    between atoms: _249  and  _250
REMARK  108  A    between atoms: _250  and  _251
REMARK  109  A    between atoms: _260  and  _262
REMARK  110  A    between atoms: _262  and  _263
REMARK  111  A    between atoms: _262  and  _265
REMARK  112  A    between atoms: _265  and  _266
REMARK  113  A    between atoms: _271  and  _273
REMARK  114  A    between atoms: _273  and  _274
REMARK  115  A    between atoms: _273  and  _276
REMARK  116  A    between atoms: _276  and  _277
REMARK  117  A    between atoms: _277  and  _278
REMARK  118  A    between atoms: _283  and  _285
REMARK  119  A    between atoms: _285  and  _286
REMARK  120  A    between atoms: _285  and  _288
REMARK  121  A    between atoms: _288  and  _289
REMARK  122  A    between atoms: _292  and  _294
REMARK  123  A    between atoms: _294  and  _295
REMARK  124  A    between atoms: _294  and  _297
REMARK  125  A    between atoms: _297  and  _298
REMARK  126  A    between atoms: _301  and  _303
REMARK  127  A    between atoms: _303  and  _304
REMARK  128  A    between atoms: _303  and  _306
REMARK  129  A    between atoms: _306  and  _307
REMARK  130  A    between atoms: _310  and  _312
REMARK  131  A    between atoms: _312  and  _313
REMARK  132  A    between atoms: _312  and  _315
REMARK  133  A    between atoms: _315  and  _316
REMARK  134  A    between atoms: _319  and  _321
REMARK  135  A    between atoms: _321  and  _322
REMARK  136  A    between atoms: _324  and  _326
REMARK  137  A    between atoms: _326  and  _327
REMARK  138  A    between atoms: _330  and  _332
REMARK  139  A    between atoms: _332  and  _333
REMARK  140  A    between atoms: _332  and  _335
REMARK  141  A    between atoms: _335  and  _336
REMARK  142  A    between atoms: _339  and  _341
REMARK  143  A    between atoms: _341  and  _342
REMARK  144  A    between atoms: _341  and  _344
REMARK  145  A    between atoms: _344  and  _345
REMARK  146  A    between atoms: _348  and  _350
REMARK  147  A    between atoms: _350  and  _351
REMARK  148  A    between atoms: _350  and  _353
REMARK  149  A    between atoms: _353  and  _354
REMARK  150  A    between atoms: _357  and  _359
REMARK  151  A    between atoms: _359  and  _360
REMARK  152  A    between atoms: _359  and  _362
REMARK  153  A    between atoms: _365  and  _367
REMARK  154  A    between atoms: _367  and  _368
REMARK  155  A    between atoms: _367  and  _370
REMARK  156  A    between atoms: _370  and  _371
REMARK  157  A    between atoms: _371  and  _372
REMARK  158  A    between atoms: _372  and  _373
REMARK  159  A    between atoms: _373  and  _374
REMARK  160  A    between atoms: _378  and  _380
REMARK  161  A    between atoms: _380  and  _381
REMARK  162  A    between atoms: _380  and  _383
REMARK  163  A    between atoms: _383  and  _384
REMARK  164  A    between atoms: _384  and  _385
REMARK  165  A    between atoms: _387  and  _389
REMARK  166  A    between atoms: _389  and  _390
REMARK  167  A    between atoms: _389  and  _392
REMARK  168  A    between atoms: _392  and  _393
REMARK  169  A    between atoms: _396  and  _398
REMARK  170  A    between atoms: _398  and  _399
REMARK  171  A    between atoms: _401  and  _403
REMARK  172  A    between atoms: _403  and  _404
REMARK  173  A    between atoms: _406  and  _408
REMARK  174  A    between atoms: _408  and  _409
REMARK  175  A    between atoms: _408  and  _411
REMARK  176  A    between atoms: _411  and  _412
REMARK  177  A    between atoms: _415  and  _417
REMARK  178  A    between atoms: _417  and  _418
REMARK  179  A    between atoms: _420  and  _422
REMARK  180  A    between atoms: _422  and  _423
REMARK  181  A    between atoms: _425  and  _427
REMARK  182  A    between atoms: _427  and  _428
REMARK  183  A    between atoms: _427  and  _430
REMARK  184  A    between atoms: _430  and  _431
REMARK  185  A    between atoms: _434  and  _436
REMARK  186  A    between atoms: _436  and  _437
REMARK  187  A    between atoms: _436  and  _439
REMARK  188  A    between atoms: _439  and  _440
REMARK  189  A    between atoms: _444  and  _445
REMARK  190  A    between atoms: _450  and  _452
REMARK  191  A    between atoms: _452  and  _453
REMARK  192  A    between atoms: _452  and  _455
REMARK  193  A    between atoms: _455  and  _456
REMARK  194  A    between atoms: _460  and  _461
REMARK  195  A    between atoms: _466  and  _468
REMARK  196  A    between atoms: _468  and  _469
REMARK  197  A    between atoms: _468  and  _471
REMARK  198  A    between atoms: _474  and  _476
REMARK  199  A    between atoms: _476  and  _477
REMARK  200  A    between atoms: _476  and  _479
REMARK  201  A    between atoms: _479  and  _480
REMARK  202  A    between atoms: _485  and  _487
REMARK  203  A    between atoms: _487  and  _488
REMARK  204  A    between atoms: _487  and  _490
REMARK  205  A    between atoms: _490  and  _491
REMARK  206  A    between atoms: _494  and  _496
REMARK  207  A    between atoms: _496  and  _497
REMARK  208  A    between atoms: _496  and  _499
REMARK  209  A    between atoms: _499  and  _500
REMARK  210  A    between atoms: _503  and  _505
REMARK  211  A    between atoms: _505  and  _506
REMARK  212  A    between atoms: _508  and  _510
REMARK  213  A    between atoms: _510  and  _511
REMARK  214  A    between atoms: _510  and  _513
REMARK  215  A    between atoms: _513  and  _514
REMARK  216  A    between atoms: _514  and  _515
REMARK  217  A    between atoms: _515  and  _516
REMARK  218  A    between atoms: _525  and  _527
REMARK  219  A    between atoms: _527  and  _528
REMARK  220  A    between atoms: _527  and  _530
REMARK  221  A    between atoms: _530  and  _531
REMARK                            x       y       z     vdW  Elec       q    Type
REMARK                         _______ _______ _______ _____ _____    ______ ____
ROOT
ATOM      1  C   ILE A   3     -14.484 -29.711  17.420  0.00  0.00    +0.241 C 
ATOM      2  O   ILE A   3     -13.286 -30.021  17.432  0.00  0.00    -0.273 OA
ATOM      3  N   GLY A   4     -15.068 -28.855  16.586  0.00  0.00    -0.295 N 
ATOM      4  H   GLY A   4     -16.032 -28.542  16.820  0.00  0.00    +0.150 HD
ENDROOT
BRANCH   3   5
ATOM      5  CA  GLY A   4     -14.485 -28.336  15.407  0.00  0.00    +0.176 C 
BRANCH   5   6
ATOM      6  C   GLY A   4     -14.258 -26.861  15.328  0.00  0.00    +0.243 C 
ATOM      7  O   GLY A   4     -15.100 -25.968  15.357  0.00  0.00    -0.273 OA
ATOM      8  N   GLY A   5     -12.961 -26.544  15.198  0.00  0.00    -0.295 N 
ATOM      9  H   GLY A   5     -12.210 -27.260  15.124  0.00  0.00    +0.150 HD
BRANCH   8  10
ATOM     10  CA  GLY A   5     -12.698 -25.133  15.169  0.00  0.00    +0.176 C 
BRANCH  10  11
ATOM     11  C   GLY A   5     -12.002 -24.796  13.871  0.00  0.00    +0.243 C 
ATOM     12  N   ILE A   6     -11.264 -23.705  13.980  0.00  0.00    -0.297 N 
ATOM     13  H   ILE A   6     -11.114 -23.246  14.901  0.00  0.00    +0.150 HD
ATOM     14  O   GLY A   5     -12.108 -25.478  12.854  0.00  0.00    -0.273 OA
BRANCH  12  15
ATOM     15  CA  ILE A   6     -10.669 -23.169  12.766  0.00  0.00    +0.149 C 
BRANCH  15  16
ATOM     16  C   ILE A   6      -9.714 -24.153  12.124  0.00  0.00    +0.241 C 
ATOM     17  N   GLY A   7      -8.918 -24.911  12.877  0.00  0.00    -0.295 N 
ATOM     18  H   GLY A   7      -9.089 -24.955  13.902  0.00  0.00    +0.150 HD
ATOM     19  O   ILE A   6      -9.723 -24.260  10.896  0.00  0.00    -0.273 OA
BRANCH  17  20
ATOM     20  CA  GLY A   7      -7.815 -25.681  12.313  0.00  0.00    +0.176 C 
BRANCH  20  21
ATOM     21  C   GLY A   7      -8.000 -27.181  12.338  0.00  0.00    +0.243 C 
ATOM     22  N   GLY A   8      -9.252 -27.559  12.484  0.00  0.00    -0.296 N 
ATOM     23  H   GLY A   8      -9.974 -26.818  12.592  0.00  0.00    +0.150 HD
ATOM     24  O   GLY A   7      -7.060 -27.975  12.228  0.00  0.00    -0.273 OA
BRANCH  22  25
ATOM     25  CA  GLY A   8      -9.694 -28.946  12.504  0.00  0.00    +0.163 C 
BRANCH  25  26
ATOM     26  C   GLY A   8     -10.357 -29.242  13.843  0.00  0.00    +0.229 C 
ATOM     27  O   GLY A   8     -10.915 -28.321  14.444  0.00  0.00    -0.286 OA
ENDBRANCH  25  26
ENDBRANCH  22  25
ENDBRANCH  20  21
ENDBRANCH  17  20
ENDBRANCH  15  16
BRANCH  15  28
ATOM     28  CB  ILE A   6     -10.003 -21.801  13.074  0.00  0.00    +0.027 C 
ATOM     29  CG2 ILE A   6      -8.695 -21.989  13.790  0.00  0.00    +0.002 C 
BRANCH  28  30
ATOM     30  CG1 ILE A   6      -9.956 -20.964  11.790  0.00  0.00    +0.002 C 
ATOM     31  CD1 ILE A   6      -9.670 -19.507  12.013  0.00  0.00    +0.000 C 
ENDBRANCH  28  30
ENDBRANCH  15  28
ENDBRANCH  12  15
ENDBRANCH  10  11
ENDBRANCH   8  10
ENDBRANCH   5   6
ENDBRANCH   3   5
BRANCH   1  32
ATOM     32  CA  ILE A   3     -15.518 -30.264  18.391  0.00  0.00    +0.149 C 
BRANCH  32  34
ATOM     33  C   MET A   2     -16.067 -32.614  18.516  0.00  0.00    +0.241 C 
ATOM     34  N   ILE A   3     -15.161 -31.648  18.689  0.00  0.00    -0.297 N 
ATOM     35  H   ILE A   3     -14.208 -31.880  19.034  0.00  0.00    +0.150 HD
ATOM     36  O   MET A   2     -17.223 -32.505  18.115  0.00  0.00    -0.273 OA
BRANCH  33  37
ATOM     37  CA  MET A   2     -15.590 -34.002  18.907  0.00  0.00    +0.149 C 
BRANCH  37  40
ATOM     38  C   LYS A   1     -16.307 -34.787  21.089  0.00  0.00    +0.238 C 
ATOM     39  O   LYS A   1     -15.177 -34.723  21.542  0.00  0.00    -0.274 OA
ATOM     40  N   MET A   2     -16.581 -34.541  19.830  0.00  0.00    -0.297 N 
ATOM     41  H   MET A   2     -17.540 -34.738  19.478  0.00  0.00    +0.150 HD
BRANCH  38  42
ATOM     42  CA  LYS A   1     -17.496 -35.156  21.959  0.00  0.00    +0.145 C 
BRANCH  42  43
ATOM     43  N   LYS A   1     -17.064 -36.120  22.949  0.00  0.00    -0.238 NA
ATOM     44  H   LYS A   1     -16.108 -36.059  23.353  0.00  0.00    +0.142 HD
ENDBRANCH  42  43
BRANCH  42  45
ATOM     45  CB  LYS A   1     -18.130 -33.895  22.581  0.00  0.00    +0.026 C 
BRANCH  45  46
ATOM     46  CG  LYS A   1     -18.937 -33.065  21.588  0.00  0.00    -0.000 C 
BRANCH  46  47
ATOM     47  CD  LYS A   1     -19.866 -32.066  22.260  0.00  0.00    -0.024 C 
BRANCH  47  48
ATOM     48  CE  LYS A   1     -20.625 -31.283  21.177  0.00  0.00    -0.086 C 
BRANCH  48  49
ATOM     49  NZ  LYS A   1     -21.337 -30.092  21.656  0.00  0.00    +0.380 N 
ATOM     50  HZ1 LYS A   1     -22.040 -30.373  22.369  0.00  0.00    -0.089 HD
ATOM     51  HZ2 LYS A   1     -20.656 -29.430  22.081  0.00  0.00    -0.089 HD
ATOM     52  HZ3 LYS A   1     -21.817 -29.632  20.856  0.00  0.00    -0.089 HD
ENDBRANCH  48  49
ENDBRANCH  47  48
ENDBRANCH  46  47
ENDBRANCH  45  46
ENDBRANCH  42  45
ENDBRANCH  38  42
ENDBRANCH  37  40
BRANCH  37  53
ATOM     53  CB  MET A   2     -15.449 -34.887  17.671  0.00  0.00    +0.041 C 
BRANCH  53  54
ATOM     54  CG  MET A   2     -14.265 -34.514  16.766  0.00  0.00    +0.060 C 
BRANCH  54  55
ATOM     55  SD  MET A   2     -14.010 -35.855  15.576  0.00  0.00    -0.139 S 
ATOM     56  CE  MET A   2     -13.478 -37.185  16.641  0.00  0.00    +0.069 C 
ENDBRANCH  54  55
ENDBRANCH  53  54
ENDBRANCH  37  53
ENDBRANCH  33  37
ENDBRANCH  32  34
BRANCH  32  57
ATOM     57  CB  ILE A   3     -15.653 -29.332  19.611  0.00  0.00    +0.027 C 
ATOM     58  CG2 ILE A   3     -16.834 -29.714  20.462  0.00  0.00    +0.002 C 
BRANCH  57  59
ATOM     59  CG1 ILE A   3     -14.357 -29.224  20.423  0.00  0.00    +0.002 C 
ATOM     60  CD1 ILE A   3     -14.397 -28.009  21.319  0.00  0.00    +0.000 C 
ENDBRANCH  57  59
ENDBRANCH  32  57
ENDBRANCH   1  32
TORSDOF 28
REMARK  Name = ../refined-set-2016/4heg/4heg_pocket.pdb
REMARK  221 active torsions:
REMARK  status: ('A' for Active; 'I' for Inactive)
REMARK    1  A    between atoms: _1  and  _3
REMARK    2  A    between atoms: _3  and  _4
REMARK    3  A    between atoms: _3  and  _6
REMARK    4  A    between atoms: _6  and  _7
REMARK    5  A    between atoms: _7  and  _8
REMARK    6  A    between atoms: _13  and  _15
REMARK    7  A    between atoms: _15  and  _16
REMARK    8  A    between atoms: _15  and  _18
REMARK    9  A    between atoms: _18  and  _19
REMARK   10  A    between atoms: _22  and  _24
REMARK   11  A    between atoms: _24  and  _25
REMARK   12  A    between atoms: _24  and  _27
REMARK   13  A    between atoms: _27  and  _28
REMARK   14  A    between atoms: _31  and  _33
REMARK   15  A    between atoms: _33  and  _34
REMARK   16  A    between atoms: _33  and  _36
REMARK   17  A    between atoms: _36  and  _37
REMARK   18  A    between atoms: _40  and  _42
REMARK   19  A    between atoms: _42  and  _43
REMARK   20  A    between atoms: _42  and  _45
REMARK   21  A    between atoms: _45  and  _46
REMARK   22  A    between atoms: _49  and  _51
REMARK   23  A    between atoms: _51  and  _52
REMARK   24  A    between atoms: _54  and  _56
REMARK   25  A    between atoms: _56  and  _57
REMARK   26  A    between atoms: _60  and  _62
REMARK   27  A    between atoms: _62  and  _63
REMARK   28  A    between atoms: _62  and  _65
REMARK   29  A    between atoms: _65  and  _66
REMARK   30  A    between atoms: _69  and  _71
REMARK   31  A    between atoms: _71  and  _72
REMARK   32  A    between atoms: _71  and  _74
REMARK   33  A    between atoms: _74  and  _75
REMARK   34  A    between atoms: _78  and  _80
REMARK   35  A    between atoms: _80  and  _81
REMARK   36  A    between atoms: _80  and  _83
REMARK   37  A    between atoms: _83  and  _84
REMARK   38  A    between atoms: _87  and  _89
REMARK   39  A    between atoms: _89  and  _90
REMARK   40  A    between atoms: _89  and  _92
REMARK   41  A    between atoms: _95  and  _97
REMARK   42  A    between atoms: _97  and  _98
REMARK   43  A    between atoms: _97  and  _100
REMARK   44  A    between atoms: _100  and  _101
REMARK   45  A    between atoms: _101  and  _102
REMARK   46  A    between atoms: _102  and  _103
REMARK   47  A    between atoms: _103  and  _104
REMARK   48  A    between atoms: _108  and  _110
REMARK   49  A    between atoms: _110  and  _111
REMARK   50  A    between atoms: _110  and  _113
REMARK   51  A    between atoms: _113  and  _114
REMARK   52  A    between atoms: _114  and  _115
REMARK   53  A    between atoms: _117  and  _119
REMARK   54  A    between atoms: _119  and  _120
REMARK   55  A    between atoms: _119  and  _122
REMARK   56  A    between atoms: _122  and  _123
REMARK   57  A    between atoms: _126  and  _128
REMARK   58  A    between atoms: _128  and  _129
REMARK   59  A    between atoms: _131  and  _133
REMARK   60  A    between atoms: _133  and  _134
REMARK   61  A    between atoms: _136  and  _138
REMARK   62  A    between atoms: _138  and  _139
REMARK   63  A    between atoms: _138  and  _141
REMARK   64  A    between atoms: _141  and  _142
REMARK   65  A    between atoms: _145  and  _147
REMARK   66  A    between atoms: _147  and  _148
REMARK   67  A    between atoms: _150  and  _152
REMARK   68  A    between atoms: _152  and  _153
REMARK   69  A    between atoms: _155  and  _157
REMARK   70  A    between atoms: _157  and  _158
REMARK   71  A    between atoms: _157  and  _160
REMARK   72  A    between atoms: _160  and  _161
REMARK   73  A    between atoms: _167  and  _169
REMARK   74  A    between atoms: _169  and  _170
REMARK   75  A    between atoms: _169  and  _172
REMARK   76  A    between atoms: _172  and  _173
REMARK   77  A    between atoms: _176  and  _178
REMARK   78  A    between atoms: _178  and  _179
REMARK   79  A    between atoms: _178  and  _181
REMARK   80  A    between atoms: _181  and  _182
REMARK   81  A    between atoms: _185  and  _187
REMARK   82  A    between atoms: _187  and  _188
REMARK   83  A    between atoms: _187  and  _190
REMARK   84  A    between atoms: _190  and  _191
REMARK   85  A    between atoms: _195  and  _196
REMARK   86  A    between atoms: _201  and  _203
REMARK   87  A    between atoms: _203  and  _204
REMARK   88  A    between atoms: _203  and  _206
REMARK   89  A    between atoms: _209  and  _211
REMARK   90  A    between atoms: _211  and  _212
REMARK   91  A    between atoms: _211  and  _214
REMARK   92  A    between atoms: _214  and  _215
REMARK   93  A    between atoms: _220  and  _222
REMARK   94  A    between atoms: _222  and  _223
REMARK   95  A    between atoms: _222  and  _225
REMARK   96  A    between atoms: _225  and  _226
REMARK   97  A    between atoms: _229  and  _231
REMARK   98  A    between atoms: _231  and  _232
REMARK   99  A    between atoms: _231  and  _234
REMARK  100  A    between atoms: _234  and  _235
REMARK  101  A    between atoms: _238  and  _240
REMARK  102  A    between atoms: _240  and  _241
REMARK  103  A    between atoms: _243  and  _245
REMARK  104  A    between atoms: _245  and  _246
REMARK  105  A    between atoms: _245  and  _248
REMARK  106  A    between atoms: _248  and  _249
REMARK  107  A    between atoms: _249  and  _250
REMARK  108  A    between atoms: _250  and  _251
REMARK  109  A    between atoms: _260  and  _262
REMARK  110  A    between atoms: _262  and  _263
REMARK  111  A    between atoms: _262  and  _265
REMARK  112  A    between atoms: _265  and  _266
REMARK  113  A    between atoms: _271  and  _273
REMARK  114  A    between atoms: _273  and  _274
REMARK  115  A    between atoms: _273  and  _276
REMARK  116  A    between atoms: _276  and  _277
REMARK  117  A    between atoms: _277  and  _278
REMARK  118  A    between atoms: _283  and  _285
REMARK  119  A    between atoms: _285  and  _286
REMARK  120  A    between atoms: _285  and  _288
REMARK  121  A    between atoms: _288  and  _289
REMARK  122  A    between atoms: _292  and  _294
REMARK  123  A    between atoms: _294  and  _295
REMARK  124  A    between atoms: _294  and  _297
REMARK  125  A    between atoms: _297  and  _298
REMARK  126  A    between atoms: _301  and  _303
REMARK  127  A    between atoms: _303  and  _304
REMARK  128  A    between atoms: _303  and  _306
REMARK  129  A    between atoms: _306  and  _307
REMARK  130  A    between atoms: _310  and  _312
REMARK  131  A    between atoms: _312  and  _313
REMARK  132  A    between atoms: _312  and  _315
REMARK  133  A    between atoms: _315  and  _316
REMARK  134  A    between atoms: _319  and  _321
REMARK  135  A    between atoms: _321  and  _322
REMARK  136  A    between atoms: _324  and  _326
REMARK  137  A    between atoms: _326  and  _327
REMARK  138  A    between atoms: _330  and  _332
REMARK  139  A    between atoms: _332  and  _333
REMARK  140  A    between atoms: _332  and  _335
REMARK  141  A    between atoms: _335  and  _336
REMARK  142  A    between atoms: _339  and  _341
REMARK  143  A    between atoms: _341  and  _342
REMARK  144  A    between atoms: _341  and  _344
REMARK  145  A    between atoms: _344  and  _345
REMARK  146  A    between atoms: _348  and  _350
REMARK  147  A    between atoms: _350  and  _351
REMARK  148  A    between atoms: _350  and  _353
REMARK  149  A    between atoms: _353  and  _354
REMARK  150  A    between atoms: _357  and  _359
REMARK  151  A    between atoms: _359  and  _360
REMARK  152  A    between atoms: _359  and  _362
REMARK  153  A    between atoms: _365  and  _367
REMARK  154  A    between atoms: _367  and  _368
REMARK  155  A    between atoms: _367  and  _370
REMARK  156  A    between atoms: _370  and  _371
REMARK  157  A    between atoms: _371  and  _372
REMARK  158  A    between atoms: _372  and  _373
REMARK  159  A    between atoms: _373  and  _374
REMARK  160  A    between atoms: _378  and  _380
REMARK  161  A    between atoms: _380  and  _381
REMARK  162  A    between atoms: _380  and  _383
REMARK  163  A    between atoms: _383  and  _384
REMARK  164  A    between atoms: _384  and  _385
REMARK  165  A    between atoms: _387  and  _389
REMARK  166  A    between atoms: _389  and  _390
REMARK  167  A    between atoms: _389  and  _392
REMARK  168  A    between atoms: _392  and  _393
REMARK  169  A    between atoms: _396  and  _398
REMARK  170  A    between atoms: _398  and  _399
REMARK  171  A    between atoms: _401  and  _403
REMARK  172  A    between atoms: _403  and  _404
REMARK  173  A    between atoms: _406  and  _408
REMARK  174  A    between atoms: _408  and  _409
REMARK  175  A    between atoms: _408  and  _411
REMARK  176  A    between atoms: _411  and  _412
REMARK  177  A    between atoms: _415  and  _417
REMARK  178  A    between atoms: _417  and  _418
REMARK  179  A    between atoms: _420  and  _422
REMARK  180  A    between atoms: _422  and  _423
REMARK  181  A    between atoms: _425  and  _427
REMARK  182  A    between atoms: _427  and  _428
REMARK  183  A    between atoms: _427  and  _430
REMARK  184  A    between atoms: _430  and  _431
REMARK  185  A    between atoms: _434  and  _436
REMARK  186  A    between atoms: _436  and  _437
REMARK  187  A    between atoms: _436  and  _439
REMARK  188  A    between atoms: _439  and  _440
REMARK  189  A    between atoms: _444  and  _445
REMARK  190  A    between atoms: _450  and  _452
REMARK  191  A    between atoms: _452  and  _453
REMARK  192  A    between atoms: _452  and  _455
REMARK  193  A    between atoms: _455  and  _456
REMARK  194  A    between atoms: _460  and  _461
REMARK  195  A    between atoms: _466  and  _468
REMARK  196  A    between atoms: _468  and  _469
REMARK  197  A    between atoms: _468  and  _471
REMARK  198  A    between atoms: _474  and  _476
REMARK  199  A    between atoms: _476  and  _477
REMARK  200  A    between atoms: _476  and  _479
REMARK  201  A    between atoms: _479  and  _480
REMARK  202  A    between atoms: _485  and  _487
REMARK  203  A    between atoms: _487  and  _488
REMARK  204  A    between atoms: _487  and  _490
REMARK  205  A    between atoms: _490  and  _491
REMARK  206  A    between atoms: _494  and  _496
REMARK  207  A    between atoms: _496  and  _497
REMARK  208  A    between atoms: _496  and  _499
REMARK  209  A    between atoms: _499  and  _500
REMARK  210  A    between atoms: _503  and  _505
REMARK  211  A    between atoms: _505  and  _506
REMARK  212  A    between atoms: _508  and  _510
REMARK  213  A    between atoms: _510  and  _511
REMARK  214  A    between atoms: _510  and  _513
REMARK  215  A    between atoms: _513  and  _514
REMARK  216  A    between atoms: _514  and  _515
REMARK  217  A    between atoms: _515  and  _516
REMARK  218  A    between atoms: _525  and  _527
REMARK  219  A    between atoms: _527  and  _528
REMARK  220  A    between atoms: _527  and  _530
REMARK  221  A    between atoms: _530  and  _531
REMARK                            x       y       z     vdW  Elec       q    Type
REMARK                         _______ _______ _______ _____ _____    ______ ____
ROOT
ATOM      1  CA  ILE A   1     -10.212 -32.026  18.859  0.00  0.00    +0.133 C 
ENDROOT
BRANCH   1   2
ATOM      2  N   ILE A   1     -10.855 -31.418  17.713  0.00  0.00    -0.239 NA
ATOM      3  H   ILE A   1     -11.773 -30.942  17.827  0.00  0.00    +0.142 HD
ENDBRANCH   1   2
BRANCH   1   4
ATOM      4  CB  ILE A   1      -9.624 -31.037  19.871  0.00  0.00    +0.023 C 
ATOM      5  CG2 ILE A   1      -8.477 -30.228  19.242  0.00  0.00    +0.002 C 
BRANCH   4   6
ATOM      6  CG1 ILE A   1     -10.620 -30.071  20.496  0.00  0.00    +0.002 C 
ATOM      7  CD1 ILE A   1     -10.058 -29.246  21.630  0.00  0.00    +0.000 C 
ENDBRANCH   4   6
ENDBRANCH   1   4
BRANCH   1   8
ATOM      8  C   ILE A   1     -11.272 -32.870  19.563  0.00  0.00    +0.224 C 
ATOM      9  O   ILE A   1     -12.479 -32.613  19.528  0.00  0.00    -0.287 OA
ENDBRANCH   1   8
TORSDOF 4
REMARK  Name = ../refined-set-2016/4heg/4heg_pocket.pdb
REMARK  221 active torsions:
REMARK  status: ('A' for Active; 'I' for Inactive)
REMARK    1  A    between atoms: _1  and  _3
REMARK    2  A    between atoms: _3  and  _4
REMARK    3  A    between atoms: _3  and  _6
REMARK    4  A    between atoms: _6  and  _7
REMARK    5  A    between atoms: _7  and  _8
REMARK    6  A    between atoms: _13  and  _15
REMARK    7  A    between atoms: _15  and  _16
REMARK    8  A    between atoms: _15  and  _18
REMARK    9  A    between atoms: _18  and  _19
REMARK   10  A    between atoms: _22  and  _24
REMARK   11  A    between atoms: _24  and  _25
REMARK   12  A    between atoms: _24  and  _27
REMARK   13  A    between atoms: _27  and  _28
REMARK   14  A    between atoms: _31  and  _33
REMARK   15  A    between atoms: _33  and  _34
REMARK   16  A    between atoms: _33  and  _36
REMARK   17  A    between atoms: _36  and  _37
REMARK   18  A    between atoms: _40  and  _42
REMARK   19  A    between atoms: _42  and  _43
REMARK   20  A    between atoms: _42  and  _45
REMARK   21  A    between atoms: _45  and  _46
REMARK   22  A    between atoms: _49  and  _51
REMARK   23  A    between atoms: _51  and  _52
REMARK   24  A    between atoms: _54  and  _56
REMARK   25  A    between atoms: _56  and  _57
REMARK   26  A    between atoms: _60  and  _62
REMARK   27  A    between atoms: _62  and  _63
REMARK   28  A    between atoms: _62  and  _65
REMARK   29  A    between atoms: _65  and  _66
REMARK   30  A    between atoms: _69  and  _71
REMARK   31  A    between atoms: _71  and  _72
REMARK   32  A    between atoms: _71  and  _74
REMARK   33  A    between atoms: _74  and  _75
REMARK   34  A    between atoms: _78  and  _80
REMARK   35  A    between atoms: _80  and  _81
REMARK   36  A    between atoms: _80  and  _83
REMARK   37  A    between atoms: _83  and  _84
REMARK   38  A    between atoms: _87  and  _89
REMARK   39  A    between atoms: _89  and  _90
REMARK   40  A    between atoms: _89  and  _92
REMARK   41  A    between atoms: _95  and  _97
REMARK   42  A    between atoms: _97  and  _98
REMARK   43  A    between atoms: _97  and  _100
REMARK   44  A    between atoms: _100  and  _101
REMARK   45  A    between atoms: _101  and  _102
REMARK   46  A    between atoms: _102  and  _103
REMARK   47  A    between atoms: _103  and  _104
REMARK   48  A    between atoms: _108  and  _110
REMARK   49  A    between atoms: _110  and  _111
REMARK   50  A    between atoms: _110  and  _113
REMARK   51  A    between atoms: _113  and  _114
REMARK   52  A    between atoms: _114  and  _115
REMARK   53  A    between atoms: _117  and  _119
REMARK   54  A    between atoms: _119  and  _120
REMARK   55  A    between atoms: _119  and  _122
REMARK   56  A    between atoms: _122  and  _123
REMARK   57  A    between atoms: _126  and  _128
REMARK   58  A    between atoms: _128  and  _129
REMARK   59  A    between atoms: _131  and  _133
REMARK   60  A    between atoms: _133  and  _134
REMARK   61  A    between atoms: _136  and  _138
REMARK   62  A    between atoms: _138  and  _139
REMARK   63  A    between atoms: _138  and  _141
REMARK   64  A    between atoms: _141  and  _142
REMARK   65  A    between atoms: _145  and  _147
REMARK   66  A    between atoms: _147  and  _148
REMARK   67  A    between atoms: _150  and  _152
REMARK   68  A    between atoms: _152  and  _153
REMARK   69  A    between atoms: _155  and  _157
REMARK   70  A    between atoms: _157  and  _158
REMARK   71  A    between atoms: _157  and  _160
REMARK   72  A    between atoms: _160  and  _161
REMARK   73  A    between atoms: _167  and  _169
REMARK   74  A    between atoms: _169  and  _170
REMARK   75  A    between atoms: _169  and  _172
REMARK   76  A    between atoms: _172  and  _173
REMARK   77  A    between atoms: _176  and  _178
REMARK   78  A    between atoms: _178  and  _179
REMARK   79  A    between atoms: _178  and  _181
REMARK   80  A    between atoms: _181  and  _182
REMARK   81  A    between atoms: _185  and  _187
REMARK   82  A    between atoms: _187  and  _188
REMARK   83  A    between atoms: _187  and  _190
REMARK   84  A    between atoms: _190  and  _191
REMARK   85  A    between atoms: _195  and  _196
REMARK   86  A    between atoms: _201  and  _203
REMARK   87  A    between atoms: _203  and  _204
REMARK   88  A    between atoms: _203  and  _206
REMARK   89  A    between atoms: _209  and  _211
REMARK   90  A    between atoms: _211  and  _212
REMARK   91  A    between atoms: _211  and  _214
REMARK   92  A    between atoms: _214  and  _215
REMARK   93  A    between atoms: _220  and  _222
REMARK   94  A    between atoms: _222  and  _223
REMARK   95  A    between atoms: _222  and  _225
REMARK   96  A    between atoms: _225  and  _226
REMARK   97  A    between atoms: _229  and  _231
REMARK   98  A    between atoms: _231  and  _232
REMARK   99  A    between atoms: _231  and  _234
REMARK  100  A    between atoms: _234  and  _235
REMARK  101  A    between atoms: _238  and  _240
REMARK  102  A    between atoms: _240  and  _241
REMARK  103  A    between atoms: _243  and  _245
REMARK  104  A    between atoms: _245  and  _246
REMARK  105  A    between atoms: _245  and  _248
REMARK  106  A    between atoms: _248  and  _249
REMARK  107  A    between atoms: _249  and  _250
REMARK  108  A    between atoms: _250  and  _251
REMARK  109  A    between atoms: _260  and  _262
REMARK  110  A    between atoms: _262  and  _263
REMARK  111  A    between atoms: _262  and  _265
REMARK  112  A    between atoms: _265  and  _266
REMARK  113  A    between atoms: _271  and  _273
REMARK  114  A    between atoms: _273  and  _274
REMARK  115  A    between atoms: _273  and  _276
REMARK  116  A    between atoms: _276  and  _277
REMARK  117  A    between atoms: _277  and  _278
REMARK  118  A    between atoms: _283  and  _285
REMARK  119  A    between atoms: _285  and  _286
REMARK  120  A    between atoms: _285  and  _288
REMARK  121  A    between atoms: _288  and  _289
REMARK  122  A    between atoms: _292  and  _294
REMARK  123  A    between atoms: _294  and  _295
REMARK  124  A    between atoms: _294  and  _297
REMARK  125  A    between atoms: _297  and  _298
REMARK  126  A    between atoms: _301  and  _303
REMARK  127  A    between atoms: _303  and  _304
REMARK  128  A    between atoms: _303  and  _306
REMARK  129  A    between atoms: _306  and  _307
REMARK  130  A    between atoms: _310  and  _312
REMARK  131  A    between atoms: _312  and  _313
REMARK  132  A    between atoms: _312  and  _315
REMARK  133  A    between atoms: _315  and  _316
REMARK  134  A    between atoms: _319  and  _321
REMARK  135  A    between atoms: _321  and  _322
REMARK  136  A    between atoms: _324  and  _326
REMARK  137  A    between atoms: _326  and  _327
REMARK  138  A    between atoms: _330  and  _332
REMARK  139  A    between atoms: _332  and  _333
REMARK  140  A    between atoms: _332  and  _335
REMARK  141  A    between atoms: _335  and  _336
REMARK  142  A    between atoms: _339  and  _341
REMARK  143  A    between atoms: _341  and  _342
REMARK  144  A    between atoms: _341  and  _344
REMARK  145  A    between atoms: _344  and  _345
REMARK  146  A    between atoms: _348  and  _350
REMARK  147  A    between atoms: _350  and  _351
REMARK  148  A    between atoms: _350  and  _353
REMARK  149  A    between atoms: _353  and  _354
REMARK  150  A    between atoms: _357  and  _359
REMARK  151  A    between atoms: _359  and  _360
REMARK  152  A    between atoms: _359  and  _362
REMARK  153  A    between atoms: _365  and  _367
REMARK  154  A    between atoms: _367  and  _368
REMARK  155  A    between atoms: _367  and  _370
REMARK  156  A    between atoms: _370  and  _371
REMARK  157  A    between atoms: _371  and  _372
REMARK  158  A    between atoms: _372  and  _373
REMARK  159  A    between atoms: _373  and  _374
REMARK  160  A    between atoms: _378  and  _380
REMARK  161  A    between atoms: _380  and  _381
REMARK  162  A    between atoms: _380  and  _383
REMARK  163  A    between atoms: _383  and  _384
REMARK  164  A    between atoms: _384  and  _385
REMARK  165  A    between atoms: _387  and  _389
REMARK  166  A    between atoms: _389  and  _390
REMARK  167  A    between atoms: _389  and  _392
REMARK  168  A    between atoms: _392  and  _393
REMARK  169  A    between atoms: _396  and  _398
REMARK  170  A    between atoms: _398  and  _399
REMARK  171  A    between atoms: _401  and  _403
REMARK  172  A    between atoms: _403  and  _404
REMARK  173  A    between atoms: _406  and  _408
REMARK  174  A    between atoms: _408  and  _409
REMARK  175  A    between atoms: _408  and  _411
REMARK  176  A    between atoms: _411  and  _412
REMARK  177  A    between atoms: _415  and  _417
REMARK  178  A    between atoms: _417  and  _418
REMARK  179  A    between atoms: _420  and  _422
REMARK  180  A    between atoms: _422  and  _423
REMARK  181  A    between atoms: _425  and  _427
REMARK  182  A    between atoms: _427  and  _428
REMARK  183  A    between atoms: _427  and  _430
REMARK  184  A    between atoms: _430  and  _431
REMARK  185  A    between atoms: _434  and  _436
REMARK  186  A    between atoms: _436  and  _437
REMARK  187  A    between atoms: _436  and  _439
REMARK  188  A    between atoms: _439  and  _440
REMARK  189  A    between atoms: _444  and  _445
REMARK  190  A    between atoms: _450  and  _452
REMARK  191  A    between atoms: _452  and  _453
REMARK  192  A    between atoms: _452  and  _455
REMARK  193  A    between atoms: _455  and  _456
REMARK  194  A    between atoms: _460  and  _461
REMARK  195  A    between atoms: _466  and  _468
REMARK  196  A    between atoms: _468  and  _469
REMARK  197  A    between atoms: _468  and  _471
REMARK  198  A    between atoms: _474  and  _476
REMARK  199  A    between atoms: _476  and  _477
REMARK  200  A    between atoms: _476  and  _479
REMARK  201  A    between atoms: _479  and  _480
REMARK  202  A    between atoms: _485  and  _487
REMARK  203  A    between atoms: _487  and  _488
REMARK  204  A    between atoms: _487  and  _490
REMARK  205  A    between atoms: _490  and  _491
REMARK  206  A    between atoms: _494  and  _496
REMARK  207  A    between atoms: _496  and  _497
REMARK  208  A    between atoms: _496  and  _499
REMARK  209  A    between atoms: _499  and  _500
REMARK  210  A    between atoms: _503  and  _505
REMARK  211  A    between atoms: _505  and  _506
REMARK  212  A    between atoms: _508  and  _510
REMARK  213  A    between atoms: _510  and  _511
REMARK  214  A    between atoms: _510  and  _513
REMARK  215  A    between atoms: _513  and  _514
REMARK  216  A    between atoms: _514  and  _515
REMARK  217  A    between atoms: _515  and  _516
REMARK  218  A    between atoms: _525  and  _527
REMARK  219  A    between atoms: _527  and  _528
REMARK  220  A    between atoms: _527  and  _530
REMARK  221  A    between atoms: _530  and  _531
REMARK                            x       y       z     vdW  Elec       q    Type
REMARK                         _______ _______ _______ _____ _____    ______ ____
ROOT
ATOM      1  CA  LEU A   1     -15.929 -29.765  27.718  0.00  0.00    +0.133 C 
ENDROOT
BRANCH   1   2
ATOM      2  N   LEU A   1     -16.783 -28.890  28.503  0.00  0.00    -0.239 NA
ATOM      3  H   LEU A   1     -16.892 -27.909  28.176  0.00  0.00    +0.142 HD
ENDBRANCH   1   2
BRANCH   1   4
ATOM      4  C   LEU A   1     -14.483 -29.561  28.128  0.00  0.00    +0.224 C 
ATOM      5  O   LEU A   1     -14.011 -28.438  28.274  0.00  0.00    -0.287 OA
ENDBRANCH   1   4
BRANCH   1   6
ATOM      6  CB  LEU A   1     -16.105 -29.480  26.239  0.00  0.00    +0.025 C 
BRANCH   6   7
ATOM      7  CG  LEU A   1     -17.515 -29.445  25.671  0.00  0.00    +0.002 C 
ATOM      8  CD2 LEU A   1     -18.280 -30.737  25.916  0.00  0.00    +0.000 C 
ATOM      9  CD1 LEU A   1     -17.493 -29.163  24.180  0.00  0.00    +0.000 C 
ENDBRANCH   6   7
ENDBRANCH   1   6
TORSDOF 4
REMARK  Name = ../refined-set-2016/4heg/4heg_pocket.pdb
REMARK  221 active torsions:
REMARK  status: ('A' for Active; 'I' for Inactive)
REMARK    1  A    between atoms: _1  and  _3
REMARK    2  A    between atoms: _3  and  _4
REMARK    3  A    between atoms: _3  and  _6
REMARK    4  A    between atoms: _6  and  _7
REMARK    5  A    between atoms: _7  and  _8
REMARK    6  A    between atoms: _13  and  _15
REMARK    7  A    between atoms: _15  and  _16
REMARK    8  A    between atoms: _15  and  _18
REMARK    9  A    between atoms: _18  and  _19
REMARK   10  A    between atoms: _22  and  _24
REMARK   11  A    between atoms: _24  and  _25
REMARK   12  A    between atoms: _24  and  _27
REMARK   13  A    between atoms: _27  and  _28
REMARK   14  A    between atoms: _31  and  _33
REMARK   15  A    between atoms: _33  and  _34
REMARK   16  A    between atoms: _33  and  _36
REMARK   17  A    between atoms: _36  and  _37
REMARK   18  A    between atoms: _40  and  _42
REMARK   19  A    between atoms: _42  and  _43
REMARK   20  A    between atoms: _42  and  _45
REMARK   21  A    between atoms: _45  and  _46
REMARK   22  A    between atoms: _49  and  _51
REMARK   23  A    between atoms: _51  and  _52
REMARK   24  A    between atoms: _54  and  _56
REMARK   25  A    between atoms: _56  and  _57
REMARK   26  A    between atoms: _60  and  _62
REMARK   27  A    between atoms: _62  and  _63
REMARK   28  A    between atoms: _62  and  _65
REMARK   29  A    between atoms: _65  and  _66
REMARK   30  A    between atoms: _69  and  _71
REMARK   31  A    between atoms: _71  and  _72
REMARK   32  A    between atoms: _71  and  _74
REMARK   33  A    between atoms: _74  and  _75
REMARK   34  A    between atoms: _78  and  _80
REMARK   35  A    between atoms: _80  and  _81
REMARK   36  A    between atoms: _80  and  _83
REMARK   37  A    between atoms: _83  and  _84
REMARK   38  A    between atoms: _87  and  _89
REMARK   39  A    between atoms: _89  and  _90
REMARK   40  A    between atoms: _89  and  _92
REMARK   41  A    between atoms: _95  and  _97
REMARK   42  A    between atoms: _97  and  _98
REMARK   43  A    between atoms: _97  and  _100
REMARK   44  A    between atoms: _100  and  _101
REMARK   45  A    between atoms: _101  and  _102
REMARK   46  A    between atoms: _102  and  _103
REMARK   47  A    between atoms: _103  and  _104
REMARK   48  A    between atoms: _108  and  _110
REMARK   49  A    between atoms: _110  and  _111
REMARK   50  A    between atoms: _110  and  _113
REMARK   51  A    between atoms: _113  and  _114
REMARK   52  A    between atoms: _114  and  _115
REMARK   53  A    between atoms: _117  and  _119
REMARK   54  A    between atoms: _119  and  _120
REMARK   55  A    between atoms: _119  and  _122
REMARK   56  A    between atoms: _122  and  _123
REMARK   57  A    between atoms: _126  and  _128
REMARK   58  A    between atoms: _128  and  _129
REMARK   59  A    between atoms: _131  and  _133
REMARK   60  A    between atoms: _133  and  _134
REMARK   61  A    between atoms: _136  and  _138
REMARK   62  A    between atoms: _138  and  _139
REMARK   63  A    between atoms: _138  and  _141
REMARK   64  A    between atoms: _141  and  _142
REMARK   65  A    between atoms: _145  and  _147
REMARK   66  A    between atoms: _147  and  _148
REMARK   67  A    between atoms: _150  and  _152
REMARK   68  A    between atoms: _152  and  _153
REMARK   69  A    between atoms: _155  and  _157
REMARK   70  A    between atoms: _157  and  _158
REMARK   71  A    between atoms: _157  and  _160
REMARK   72  A    between atoms: _160  and  _161
REMARK   73  A    between atoms: _167  and  _169
REMARK   74  A    between atoms: _169  and  _170
REMARK   75  A    between atoms: _169  and  _172
REMARK   76  A    between atoms: _172  and  _173
REMARK   77  A    between atoms: _176  and  _178
REMARK   78  A    between atoms: _178  and  _179
REMARK   79  A    between atoms: _178  and  _181
REMARK   80  A    between atoms: _181  and  _182
REMARK   81  A    between atoms: _185  and  _187
REMARK   82  A    between atoms: _187  and  _188
REMARK   83  A    between atoms: _187  and  _190
REMARK   84  A    between atoms: _190  and  _191
REMARK   85  A    between atoms: _195  and  _196
REMARK   86  A    between atoms: _201  and  _203
REMARK   87  A    between atoms: _203  and  _204
REMARK   88  A    between atoms: _203  and  _206
REMARK   89  A    between atoms: _209  and  _211
REMARK   90  A    between atoms: _211  and  _212
REMARK   91  A    between atoms: _211  and  _214
REMARK   92  A    between atoms: _214  and  _215
REMARK   93  A    between atoms: _220  and  _222
REMARK   94  A    between atoms: _222  and  _223
REMARK   95  A    between atoms: _222  and  _225
REMARK   96  A    between atoms: _225  and  _226
REMARK   97  A    between atoms: _229  and  _231
REMARK   98  A    between atoms: _231  and  _232
REMARK   99  A    between atoms: _231  and  _234
REMARK  100  A    between atoms: _234  and  _235
REMARK  101  A    between atoms: _238  and  _240
REMARK  102  A    between atoms: _240  and  _241
REMARK  103  A    between atoms: _243  and  _245
REMARK  104  A    between atoms: _245  and  _246
REMARK  105  A    between atoms: _245  and  _248
REMARK  106  A    between atoms: _248  and  _249
REMARK  107  A    between atoms: _249  and  _250
REMARK  108  A    between atoms: _250  and  _251
REMARK  109  A    between atoms: _260  and  _262
REMARK  110  A    between atoms: _262  and  _263
REMARK  111  A    between atoms: _262  and  _265
REMARK  112  A    between atoms: _265  and  _266
REMARK  113  A    between atoms: _271  and  _273
REMARK  114  A    between atoms: _273  and  _274
REMARK  115  A    between atoms: _273  and  _276
REMARK  116  A    between atoms: _276  and  _277
REMARK  117  A    between atoms: _277  and  _278
REMARK  118  A    between atoms: _283  and  _285
REMARK  119  A    between atoms: _285  and  _286
REMARK  120  A    between atoms: _285  and  _288
REMARK  121  A    between atoms: _288  and  _289
REMARK  122  A    between atoms: _292  and  _294
REMARK  123  A    between atoms: _294  and  _295
REMARK  124  A    between atoms: _294  and  _297
REMARK  125  A    between atoms: _297  and  _298
REMARK  126  A    between atoms: _301  and  _303
REMARK  127  A    between atoms: _303  and  _304
REMARK  128  A    between atoms: _303  and  _306
REMARK  129  A    between atoms: _306  and  _307
REMARK  130  A    between atoms: _310  and  _312
REMARK  131  A    between atoms: _312  and  _313
REMARK  132  A    between atoms: _312  and  _315
REMARK  133  A    between atoms: _315  and  _316
REMARK  134  A    between atoms: _319  and  _321
REMARK  135  A    between atoms: _321  and  _322
REMARK  136  A    between atoms: _324  and  _326
REMARK  137  A    between atoms: _326  and  _327
REMARK  138  A    between atoms: _330  and  _332
REMARK  139  A    between atoms: _332  and  _333
REMARK  140  A    between atoms: _332  and  _335
REMARK  141  A    between atoms: _335  and  _336
REMARK  142  A    between atoms: _339  and  _341
REMARK  143  A    between atoms: _341  and  _342
REMARK  144  A    between atoms: _341  and  _344
REMARK  145  A    between atoms: _344  and  _345
REMARK  146  A    between atoms: _348  and  _350
REMARK  147  A    between atoms: _350  and  _351
REMARK  148  A    between atoms: _350  and  _353
REMARK  149  A    between atoms: _353  and  _354
REMARK  150  A    between atoms: _357  and  _359
REMARK  151  A    between atoms: _359  and  _360
REMARK  152  A    between atoms: _359  and  _362
REMARK  153  A    between atoms: _365  and  _367
REMARK  154  A    between atoms: _367  and  _368
REMARK  155  A    between atoms: _367  and  _370
REMARK  156  A    between atoms: _370  and  _371
REMARK  157  A    between atoms: _371  and  _372
REMARK  158  A    between atoms: _372  and  _373
REMARK  159  A    between atoms: _373  and  _374
REMARK  160  A    between atoms: _378  and  _380
REMARK  161  A    between atoms: _380  and  _381
REMARK  162  A    between atoms: _380  and  _383
REMARK  163  A    between atoms: _383  and  _384
REMARK  164  A    between atoms: _384  and  _385
REMARK  165  A    between atoms: _387  and  _389
REMARK  166  A    between atoms: _389  and  _390
REMARK  167  A    between atoms: _389  and  _392
REMARK  168  A    between atoms: _392  and  _393
REMARK  169  A    between atoms: _396  and  _398
REMARK  170  A    between atoms: _398  and  _399
REMARK  171  A    between atoms: _401  and  _403
REMARK  172  A    between atoms: _403  and  _404
REMARK  173  A    between atoms: _406  and  _408
REMARK  174  A    between atoms: _408  and  _409
REMARK  175  A    between atoms: _408  and  _411
REMARK  176  A    between atoms: _411  and  _412
REMARK  177  A    between atoms: _415  and  _417
REMARK  178  A    between atoms: _417  and  _418
REMARK  179  A    between atoms: _420  and  _422
REMARK  180  A    between atoms: _422  and  _423
REMARK  181  A    between atoms: _425  and  _427
REMARK  182  A    between atoms: _427  and  _428
REMARK  183  A    between atoms: _427  and  _430
REMARK  184  A    between atoms: _430  and  _431
REMARK  185  A    between atoms: _434  and  _436
REMARK  186  A    between atoms: _436  and  _437
REMARK  187  A    between atoms: _436  and  _439
REMARK  188  A    between atoms: _439  and  _440
REMARK  189  A    between atoms: _444  and  _445
REMARK  190  A    between atoms: _450  and  _452
REMARK  191  A    between atoms: _452  and  _453
REMARK  192  A    between atoms: _452  and  _455
REMARK  193  A    between atoms: _455  and  _456
REMARK  194  A    between atoms: _460  and  _461
REMARK  195  A    between atoms: _466  and  _468
REMARK  196  A    between atoms: _468  and  _469
REMARK  197  A    between atoms: _468  and  _471
REMARK  198  A    between atoms: _474  and  _476
REMARK  199  A    between atoms: _476  and  _477
REMARK  200  A    between atoms: _476  and  _479
REMARK  201  A    between atoms: _479  and  _480
REMARK  202  A    between atoms: _485  and  _487
REMARK  203  A    between atoms: _487  and  _488
REMARK  204  A    between atoms: _487  and  _490
REMARK  205  A    between atoms: _490  and  _491
REMARK  206  A    between atoms: _494  and  _496
REMARK  207  A    between atoms: _496  and  _497
REMARK  208  A    between atoms: _496  and  _499
REMARK  209  A    between atoms: _499  and  _500
REMARK  210  A    between atoms: _503  and  _505
REMARK  211  A    between atoms: _505  and  _506
REMARK  212  A    between atoms: _508  and  _510
REMARK  213  A    between atoms: _510  and  _511
REMARK  214  A    between atoms: _510  and  _513
REMARK  215  A    between atoms: _513  and  _514
REMARK  216  A    between atoms: _514  and  _515
REMARK  217  A    between atoms: _515  and  _516
REMARK  218  A    between atoms: _525  and  _527
REMARK  219  A    between atoms: _527  and  _528
REMARK  220  A    between atoms: _527  and  _530
REMARK  221  A    between atoms: _530  and  _531
REMARK                            x       y       z     vdW  Elec       q    Type
REMARK                         _______ _______ _______ _____ _____    ______ ____
ROOT
ATOM      1  CA  ILE A   6     -13.426 -20.606  26.256  0.00  0.00    +0.149 C 
ENDROOT
BRANCH   1   4
ATOM      2  C   ASN A   5     -11.293 -20.719  27.479  0.00  0.00    +0.241 C 
ATOM      3  O   ASN A   5     -11.061 -19.517  27.425  0.00  0.00    -0.273 OA
ATOM      4  N   ILE A   6     -12.376 -21.291  27.010  0.00  0.00    -0.297 N 
ATOM      5  H   ILE A   6     -12.498 -22.309  27.188  0.00  0.00    +0.150 HD
BRANCH   2   6
ATOM      6  CA  ASN A   5     -10.247 -21.622  28.124  0.00  0.00    +0.158 C 
BRANCH   6   8
ATOM      7  C   VAL A   4      -8.687 -21.701  26.273  0.00  0.00    +0.241 C 
ATOM      8  N   ASN A   5      -8.972 -21.346  27.500  0.00  0.00    -0.297 N 
ATOM      9  H   ASN A   5      -8.248 -20.842  28.052  0.00  0.00    +0.150 HD
ATOM     10  O   VAL A   4      -9.449 -22.374  25.577  0.00  0.00    -0.273 OA
BRANCH   7  11
ATOM     11  CA  VAL A   4      -7.369 -21.207  25.691  0.00  0.00    +0.149 C 
BRANCH  11  14
ATOM     12  C   PRO A   3      -5.705 -22.460  24.365  0.00  0.00    +0.241 C 
ATOM     13  O   PRO A   3      -4.721 -21.895  24.838  0.00  0.00    -0.273 OA
ATOM     14  N   VAL A   4      -6.946 -22.202  24.716  0.00  0.00    -0.297 N 
ATOM     15  H   VAL A   4      -7.693 -22.760  24.255  0.00  0.00    +0.150 HD
BRANCH  12  19
ATOM     16  C   THR A   2      -6.885 -25.322  23.956  0.00  0.00    +0.246 C 
ATOM     17  O   THR A   2      -6.218 -25.364  24.991  0.00  0.00    -0.273 OA
ATOM     18  N   PRO A   3      -6.557 -24.441  23.036  0.00  0.00    -0.272 N 
ATOM     19  CA  PRO A   3      -5.461 -23.490  23.264  0.00  0.00    +0.152 C 
ATOM     20  CB  PRO A   3      -5.342 -22.768  21.926  0.00  0.00    +0.031 C 
ATOM     21  CG  PRO A   3      -5.939 -23.742  20.955  0.00  0.00    +0.024 C 
ATOM     22  CD  PRO A   3      -7.133 -24.303  21.665  0.00  0.00    +0.094 C 
BRANCH  16  23
ATOM     23  CA  THR A   2      -8.052 -26.286  23.737  0.00  0.00    +0.176 C 
BRANCH  23  25
ATOM     24  C   PRO A   1      -6.964 -28.431  23.629  0.00  0.00    +0.239 C 
ATOM     25  N   THR A   2      -7.763 -27.597  24.295  0.00  0.00    -0.295 N 
ATOM     26  H   THR A   2      -8.176 -27.882  25.206  0.00  0.00    +0.150 HD
ATOM     27  O   PRO A   1      -6.496 -28.198  22.533  0.00  0.00    -0.274 OA
BRANCH  24  29
ATOM     28  N   PRO A   1      -7.797 -30.476  24.860  0.00  0.00    -0.210 NA
ATOM     29  CA  PRO A   1      -6.630 -29.671  24.420  0.00  0.00    +0.149 C 
ATOM     30  CB  PRO A   1      -5.831 -30.660  23.562  0.00  0.00    +0.028 C 
ATOM     31  CG  PRO A   1      -6.890 -31.598  23.029  0.00  0.00    +0.021 C 
ATOM     32  CD  PRO A   1      -7.986 -31.698  24.055  0.00  0.00    +0.089 C 
ENDBRANCH  24  29
ENDBRANCH  23  25
BRANCH  23  33
ATOM     33  CB  THR A   2      -9.343 -25.701  24.340  0.00  0.00    +0.137 C 
ATOM     34  CG2 THR A   2      -9.293 -25.567  25.854  0.00  0.00    +0.034 C 
BRANCH  33  35
ATOM     35  OG1 THR A   2      -9.517 -24.385  23.832  0.00  0.00    -0.382 OA
ATOM     36  HG1 THR A   2      -8.740 -23.828  24.088  0.00  0.00    +0.210 HD
ENDBRANCH  33  35
ENDBRANCH  23  33
ENDBRANCH  16  23
ENDBRANCH  12  19
ENDBRANCH  11  14
BRANCH  11  37
ATOM     37  CB  VAL A   4      -7.459 -19.837  25.005  0.00  0.00    +0.027 C 
ATOM     38  CG2 VAL A   4      -8.315 -18.805  25.708  0.00  0.00    +0.002 C 
ATOM     39  CG1 VAL A   4      -6.050 -19.229  24.848  0.00  0.00    +0.002 C 
ENDBRANCH  11  37
ENDBRANCH   7  11
ENDBRANCH   6   8
BRANCH   6  40
ATOM     40  CB  ASN A   5     -10.190 -21.369  29.623  0.00  0.00    +0.114 C 
BRANCH  40  41
ATOM     41  CG  ASN A   5      -9.230 -22.301  30.322  0.00  0.00    +0.222 C 
ATOM     42  ND2 ASN A   5      -8.581 -21.768  31.356  0.00  0.00    -0.329 N 
ATOM     43 HD21 ASN A   5      -7.904 -22.343  31.897  0.00  0.00    +0.145 HD
ATOM     44 HD22 ASN A   5      -8.751 -20.777  31.622  0.00  0.00    +0.145 HD
ATOM     45  OD1 ASN A   5      -9.085 -23.471  29.941  0.00  0.00    -0.275 OA
ENDBRANCH  40  41
ENDBRANCH   6  40
ENDBRANCH   2   6
ENDBRANCH   1   4
BRANCH   1  46
ATOM     46  C   ILE A   6     -14.765 -20.732  26.938  0.00  0.00    +0.241 C 
ATOM     47  N   ILE A   7     -15.451 -19.629  27.231  0.00  0.00    -0.297 N 
ATOM     48  H   ILE A   7     -15.003 -18.701  27.092  0.00  0.00    +0.150 HD
ATOM     49  O   ILE A   6     -15.140 -21.888  27.172  0.00  0.00    -0.273 OA
BRANCH  47  50
ATOM     50  CA  ILE A   7     -16.813 -19.691  27.741  0.00  0.00    +0.149 C 
BRANCH  50  51
ATOM     51  C   ILE A   7     -17.716 -19.471  26.548  0.00  0.00    +0.241 C 
ATOM     52  N   GLY A   8     -18.462 -20.486  26.155  0.00  0.00    -0.295 N 
ATOM     53  H   GLY A   8     -18.447 -21.365  26.710  0.00  0.00    +0.150 HD
ATOM     54  O   ILE A   7     -17.702 -18.379  25.958  0.00  0.00    -0.273 OA
BRANCH  52  55
ATOM     55  CA  GLY A   8     -19.287 -20.418  24.996  0.00  0.00    +0.176 C 
BRANCH  55  56
ATOM     56  C   GLY A   8     -20.713 -20.113  25.310  0.00  0.00    +0.243 C 
ATOM     57  O   GLY A   8     -21.033 -19.855  26.476  0.00  0.00    -0.273 OA
ATOM     58  N   ARG A   9     -21.562 -20.139  24.286  0.00  0.00    -0.297 N 
ATOM     59  H   ARG A   9     -21.253 -20.511  23.365  0.00  0.00    +0.150 HD
BRANCH  58  60
ATOM     60  CA  ARG A   9     -22.927 -19.647  24.452  0.00  0.00    +0.149 C 
BRANCH  60  61
ATOM     61  C   ARG A   9     -23.746 -20.442  25.450  0.00  0.00    +0.241 C 
ATOM     62  O   ARG A   9     -24.675 -19.863  26.054  0.00  0.00    -0.273 OA
ATOM     63  N   ASN A  10     -23.414 -21.727  25.648  0.00  0.00    -0.298 N 
ATOM     64  H   ASN A  10     -22.618 -22.168  25.145  0.00  0.00    +0.150 HD
BRANCH  63  65
ATOM     65  CA  ASN A  10     -24.226 -22.475  26.604  0.00  0.00    +0.146 C 
BRANCH  65  66
ATOM     66  C   ASN A  10     -24.160 -21.848  27.989  0.00  0.00    +0.227 C 
ATOM     67  O   ASN A  10     -25.115 -21.950  28.762  0.00  0.00    -0.286 OA
ENDBRANCH  65  66
BRANCH  65  68
ATOM     68  CB  ASN A  10     -23.741 -23.928  26.660  0.00  0.00    +0.112 C 
BRANCH  68  69
ATOM     69  CG  ASN A  10     -22.414 -24.138  27.334  0.00  0.00    +0.222 C 
ATOM     70  ND2 ASN A  10     -22.450 -24.991  28.345  0.00  0.00    -0.329 N 
ATOM     71 HD21 ASN A  10     -21.585 -25.193  28.886  0.00  0.00    +0.145 HD
ATOM     72 HD22 ASN A  10     -23.343 -25.460  28.598  0.00  0.00    +0.145 HD
ATOM     73  OD1 ASN A  10     -21.423 -23.521  26.937  0.00  0.00    -0.275 OA
ENDBRANCH  68  69
ENDBRANCH  65  68
ENDBRANCH  63  65
ENDBRANCH  60  61
BRANCH  60  74
ATOM     74  CB  ARG A   9     -23.631 -19.588  23.078  0.00  0.00    +0.033 C 
BRANCH  74  75
ATOM     75  CG  ARG A   9     -23.044 -18.553  22.142  0.00  0.00    +0.045 C 
BRANCH  75  76
ATOM     76  CD  ARG A   9     -23.837 -18.374  20.845  0.00  0.00    +0.174 C 
BRANCH  76  77
ATOM     77  NE  ARG A   9     -23.857 -19.618  20.057  0.00  0.00    -0.265 N 
ATOM     78  CZ  ARG A   9     -24.814 -20.533  20.086  0.00  0.00    +0.342 C 
ATOM     79  NH2 ARG A   9     -25.913 -20.419  20.837  0.00  0.00    -0.292 N 
ATOM     80 HH21 ARG A   9     -26.048 -19.581  21.437  0.00  0.00    +0.255 HD
ATOM     81 HH22 ARG A   9     -26.634 -21.169  20.821  0.00  0.00    +0.255 HD
ATOM     82  NH1 ARG A   9     -24.678 -21.618  19.327  0.00  0.00    -0.292 N 
ATOM     83 HH11 ARG A   9     -25.415 -22.352  19.332  0.00  0.00    +0.255 HD
ATOM     84 HH12 ARG A   9     -23.835 -21.732  18.729  0.00  0.00    +0.255 HD
ATOM     85  HE  ARG A   9     -23.051 -19.793  19.424  0.00  0.00    +0.259 HD
ENDBRANCH  76  77
ENDBRANCH  75  76
ENDBRANCH  74  75
ENDBRANCH  60  74
ENDBRANCH  58  60
ENDBRANCH  55  56
ENDBRANCH  52  55
ENDBRANCH  50  51
BRANCH  50  86
ATOM     86  CB  ILE A   7     -17.041 -18.656  28.836  0.00  0.00    +0.027 C 
ATOM     87  CG2 ILE A   7     -18.456 -18.786  29.377  0.00  0.00    +0.002 C 
BRANCH  86  88
ATOM     88  CG1 ILE A   7     -16.034 -18.719  29.981  0.00  0.00    +0.002 C 
ATOM     89  CD1 ILE A   7     -15.863 -20.073  30.603  0.00  0.00    +0.000 C 
ENDBRANCH  86  88
ENDBRANCH  50  86
ENDBRANCH  47  50
ENDBRANCH   1  46
BRANCH   1  90
ATOM     90  CB  ILE A   6     -13.470 -21.268  24.865  0.00  0.00    +0.027 C 
ATOM     91  CG2 ILE A   6     -14.716 -20.884  24.097  0.00  0.00    +0.002 C 
BRANCH  90  92
ATOM     92  CG1 ILE A   6     -12.209 -20.992  24.053  0.00  0.00    +0.002 C 
ATOM     93  CD1 ILE A   6     -12.013 -21.939  22.892  0.00  0.00    +0.000 C 
ENDBRANCH  90  92
ENDBRANCH   1  90
TORSDOF 33
REMARK  Name = ../refined-set-2016/4heg/4heg_pocket.pdb
REMARK  221 active torsions:
REMARK  status: ('A' for Active; 'I' for Inactive)
REMARK    1  A    between atoms: _1  and  _3
REMARK    2  A    between atoms: _3  and  _4
REMARK    3  A    between atoms: _3  and  _6
REMARK    4  A    between atoms: _6  and  _7
REMARK    5  A    between atoms: _7  and  _8
REMARK    6  A    between atoms: _13  and  _15
REMARK    7  A    between atoms: _15  and  _16
REMARK    8  A    between atoms: _15  and  _18
REMARK    9  A    between atoms: _18  and  _19
REMARK   10  A    between atoms: _22  and  _24
REMARK   11  A    between atoms: _24  and  _25
REMARK   12  A    between atoms: _24  and  _27
REMARK   13  A    between atoms: _27  and  _28
REMARK   14  A    between atoms: _31  and  _33
REMARK   15  A    between atoms: _33  and  _34
REMARK   16  A    between atoms: _33  and  _36
REMARK   17  A    between atoms: _36  and  _37
REMARK   18  A    between atoms: _40  and  _42
REMARK   19  A    between atoms: _42  and  _43
REMARK   20  A    between atoms: _42  and  _45
REMARK   21  A    between atoms: _45  and  _46
REMARK   22  A    between atoms: _49  and  _51
REMARK   23  A    between atoms: _51  and  _52
REMARK   24  A    between atoms: _54  and  _56
REMARK   25  A    between atoms: _56  and  _57
REMARK   26  A    between atoms: _60  and  _62
REMARK   27  A    between atoms: _62  and  _63
REMARK   28  A    between atoms: _62  and  _65
REMARK   29  A    between atoms: _65  and  _66
REMARK   30  A    between atoms: _69  and  _71
REMARK   31  A    between atoms: _71  and  _72
REMARK   32  A    between atoms: _71  and  _74
REMARK   33  A    between atoms: _74  and  _75
REMARK   34  A    between atoms: _78  and  _80
REMARK   35  A    between atoms: _80  and  _81
REMARK   36  A    between atoms: _80  and  _83
REMARK   37  A    between atoms: _83  and  _84
REMARK   38  A    between atoms: _87  and  _89
REMARK   39  A    between atoms: _89  and  _90
REMARK   40  A    between atoms: _89  and  _92
REMARK   41  A    between atoms: _95  and  _97
REMARK   42  A    between atoms: _97  and  _98
REMARK   43  A    between atoms: _97  and  _100
REMARK   44  A    between atoms: _100  and  _101
REMARK   45  A    between atoms: _101  and  _102
REMARK   46  A    between atoms: _102  and  _103
REMARK   47  A    between atoms: _103  and  _104
REMARK   48  A    between atoms: _108  and  _110
REMARK   49  A    between atoms: _110  and  _111
REMARK   50  A    between atoms: _110  and  _113
REMARK   51  A    between atoms: _113  and  _114
REMARK   52  A    between atoms: _114  and  _115
REMARK   53  A    between atoms: _117  and  _119
REMARK   54  A    between atoms: _119  and  _120
REMARK   55  A    between atoms: _119  and  _122
REMARK   56  A    between atoms: _122  and  _123
REMARK   57  A    between atoms: _126  and  _128
REMARK   58  A    between atoms: _128  and  _129
REMARK   59  A    between atoms: _131  and  _133
REMARK   60  A    between atoms: _133  and  _134
REMARK   61  A    between atoms: _136  and  _138
REMARK   62  A    between atoms: _138  and  _139
REMARK   63  A    between atoms: _138  and  _141
REMARK   64  A    between atoms: _141  and  _142
REMARK   65  A    between atoms: _145  and  _147
REMARK   66  A    between atoms: _147  and  _148
REMARK   67  A    between atoms: _150  and  _152
REMARK   68  A    between atoms: _152  and  _153
REMARK   69  A    between atoms: _155  and  _157
REMARK   70  A    between atoms: _157  and  _158
REMARK   71  A    between atoms: _157  and  _160
REMARK   72  A    between atoms: _160  and  _161
REMARK   73  A    between atoms: _167  and  _169
REMARK   74  A    between atoms: _169  and  _170
REMARK   75  A    between atoms: _169  and  _172
REMARK   76  A    between atoms: _172  and  _173
REMARK   77  A    between atoms: _176  and  _178
REMARK   78  A    between atoms: _178  and  _179
REMARK   79  A    between atoms: _178  and  _181
REMARK   80  A    between atoms: _181  and  _182
REMARK   81  A    between atoms: _185  and  _187
REMARK   82  A    between atoms: _187  and  _188
REMARK   83  A    between atoms: _187  and  _190
REMARK   84  A    between atoms: _190  and  _191
REMARK   85  A    between atoms: _195  and  _196
REMARK   86  A    between atoms: _201  and  _203
REMARK   87  A    between atoms: _203  and  _204
REMARK   88  A    between atoms: _203  and  _206
REMARK   89  A    between atoms: _209  and  _211
REMARK   90  A    between atoms: _211  and  _212
REMARK   91  A    between atoms: _211  and  _214
REMARK   92  A    between atoms: _214  and  _215
REMARK   93  A    between atoms: _220  and  _222
REMARK   94  A    between atoms: _222  and  _223
REMARK   95  A    between atoms: _222  and  _225
REMARK   96  A    between atoms: _225  and  _226
REMARK   97  A    between atoms: _229  and  _231
REMARK   98  A    between atoms: _231  and  _232
REMARK   99  A    between atoms: _231  and  _234
REMARK  100  A    between atoms: _234  and  _235
REMARK  101  A    between atoms: _238  and  _240
REMARK  102  A    between atoms: _240  and  _241
REMARK  103  A    between atoms: _243  and  _245
REMARK  104  A    between atoms: _245  and  _246
REMARK  105  A    between atoms: _245  and  _248
REMARK  106  A    between atoms: _248  and  _249
REMARK  107  A    between atoms: _249  and  _250
REMARK  108  A    between atoms: _250  and  _251
REMARK  109  A    between atoms: _260  and  _262
REMARK  110  A    between atoms: _262  and  _263
REMARK  111  A    between atoms: _262  and  _265
REMARK  112  A    between atoms: _265  and  _266
REMARK  113  A    between atoms: _271  and  _273
REMARK  114  A    between atoms: _273  and  _274
REMARK  115  A    between atoms: _273  and  _276
REMARK  116  A    between atoms: _276  and  _277
REMARK  117  A    between atoms: _277  and  _278
REMARK  118  A    between atoms: _283  and  _285
REMARK  119  A    between atoms: _285  and  _286
REMARK  120  A    between atoms: _285  and  _288
REMARK  121  A    between atoms: _288  and  _289
REMARK  122  A    between atoms: _292  and  _294
REMARK  123  A    between atoms: _294  and  _295
REMARK  124  A    between atoms: _294  and  _297
REMARK  125  A    between atoms: _297  and  _298
REMARK  126  A    between atoms: _301  and  _303
REMARK  127  A    between atoms: _303  and  _304
REMARK  128  A    between atoms: _303  and  _306
REMARK  129  A    between atoms: _306  and  _307
REMARK  130  A    between atoms: _310  and  _312
REMARK  131  A    between atoms: _312  and  _313
REMARK  132  A    between atoms: _312  and  _315
REMARK  133  A    between atoms: _315  and  _316
REMARK  134  A    between atoms: _319  and  _321
REMARK  135  A    between atoms: _321  and  _322
REMARK  136  A    between atoms: _324  and  _326
REMARK  137  A    between atoms: _326  and  _327
REMARK  138  A    between atoms: _330  and  _332
REMARK  139  A    between atoms: _332  and  _333
REMARK  140  A    between atoms: _332  and  _335
REMARK  141  A    between atoms: _335  and  _336
REMARK  142  A    between atoms: _339  and  _341
REMARK  143  A    between atoms: _341  and  _342
REMARK  144  A    between atoms: _341  and  _344
REMARK  145  A    between atoms: _344  and  _345
REMARK  146  A    between atoms: _348  and  _350
REMARK  147  A    between atoms: _350  and  _351
REMARK  148  A    between atoms: _350  and  _353
REMARK  149  A    between atoms: _353  and  _354
REMARK  150  A    between atoms: _357  and  _359
REMARK  151  A    between atoms: _359  and  _360
REMARK  152  A    between atoms: _359  and  _362
REMARK  153  A    between atoms: _365  and  _367
REMARK  154  A    between atoms: _367  and  _368
REMARK  155  A    between atoms: _367  and  _370
REMARK  156  A    between atoms: _370  and  _371
REMARK  157  A    between atoms: _371  and  _372
REMARK  158  A    between atoms: _372  and  _373
REMARK  159  A    between atoms: _373  and  _374
REMARK  160  A    between atoms: _378  and  _380
REMARK  161  A    between atoms: _380  and  _381
REMARK  162  A    between atoms: _380  and  _383
REMARK  163  A    between atoms: _383  and  _384
REMARK  164  A    between atoms: _384  and  _385
REMARK  165  A    between atoms: _387  and  _389
REMARK  166  A    between atoms: _389  and  _390
REMARK  167  A    between atoms: _389  and  _392
REMARK  168  A    between atoms: _392  and  _393
REMARK  169  A    between atoms: _396  and  _398
REMARK  170  A    between atoms: _398  and  _399
REMARK  171  A    between atoms: _401  and  _403
REMARK  172  A    between atoms: _403  and  _404
REMARK  173  A    between atoms: _406  and  _408
REMARK  174  A    between atoms: _408  and  _409
REMARK  175  A    between atoms: _408  and  _411
REMARK  176  A    between atoms: _411  and  _412
REMARK  177  A    between atoms: _415  and  _417
REMARK  178  A    between atoms: _417  and  _418
REMARK  179  A    between atoms: _420  and  _422
REMARK  180  A    between atoms: _422  and  _423
REMARK  181  A    between atoms: _425  and  _427
REMARK  182  A    between atoms: _427  and  _428
REMARK  183  A    between atoms: _427  and  _430
REMARK  184  A    between atoms: _430  and  _431
REMARK  185  A    between atoms: _434  and  _436
REMARK  186  A    between atoms: _436  and  _437
REMARK  187  A    between atoms: _436  and  _439
REMARK  188  A    between atoms: _439  and  _440
REMARK  189  A    between atoms: _444  and  _445
REMARK  190  A    between atoms: _450  and  _452
REMARK  191  A    between atoms: _452  and  _453
REMARK  192  A    between atoms: _452  and  _455
REMARK  193  A    between atoms: _455  and  _456
REMARK  194  A    between atoms: _460  and  _461
REMARK  195  A    between atoms: _466  and  _468
REMARK  196  A    between atoms: _468  and  _469
REMARK  197  A    between atoms: _468  and  _471
REMARK  198  A    between atoms: _474  and  _476
REMARK  199  A    between atoms: _476  and  _477
REMARK  200  A    between atoms: _476  and  _479
REMARK  201  A    between atoms: _479  and  _480
REMARK  202  A    between atoms: _485  and  _487
REMARK  203  A    between atoms: _487  and  _488
REMARK  204  A    between atoms: _487  and  _490
REMARK  205  A    between atoms: _490  and  _491
REMARK  206  A    between atoms: _494  and  _496
REMARK  207  A    between atoms: _496  and  _497
REMARK  208  A    between atoms: _496  and  _499
REMARK  209  A    between atoms: _499  and  _500
REMARK  210  A    between atoms: _503  and  _505
REMARK  211  A    between atoms: _505  and  _506
REMARK  212  A    between atoms: _508  and  _510
REMARK  213  A    between atoms: _510  and  _511
REMARK  214  A    between atoms: _510  and  _513
REMARK  215  A    between atoms: _513  and  _514
REMARK  216  A    between atoms: _514  and  _515
REMARK  217  A    between atoms: _515  and  _516
REMARK  218  A    between atoms: _525  and  _527
REMARK  219  A    between atoms: _527  and  _528
REMARK  220  A    between atoms: _527  and  _530
REMARK  221  A    between atoms: _530  and  _531
REMARK                            x       y       z     vdW  Elec       q    Type
REMARK                         _______ _______ _______ _____ _____    ______ ____
ROOT
ATOM      1  O   HOH     1     -10.714 -12.326  21.600  0.00  0.00    +0.000 OA
ENDROOT
TORSDOF 0
REMARK  Name = ../refined-set-2016/4heg/4heg_pocket.pdb
REMARK  221 active torsions:
REMARK  status: ('A' for Active; 'I' for Inactive)
REMARK    1  A    between atoms: _1  and  _3
REMARK    2  A    between atoms: _3  and  _4
REMARK    3  A    between atoms: _3  and  _6
REMARK    4  A    between atoms: _6  and  _7
REMARK    5  A    between atoms: _7  and  _8
REMARK    6  A    between atoms: _13  and  _15
REMARK    7  A    between atoms: _15  and  _16
REMARK    8  A    between atoms: _15  and  _18
REMARK    9  A    between atoms: _18  and  _19
REMARK   10  A    between atoms: _22  and  _24
REMARK   11  A    between atoms: _24  and  _25
REMARK   12  A    between atoms: _24  and  _27
REMARK   13  A    between atoms: _27  and  _28
REMARK   14  A    between atoms: _31  and  _33
REMARK   15  A    between atoms: _33  and  _34
REMARK   16  A    between atoms: _33  and  _36
REMARK   17  A    between atoms: _36  and  _37
REMARK   18  A    between atoms: _40  and  _42
REMARK   19  A    between atoms: _42  and  _43
REMARK   20  A    between atoms: _42  and  _45
REMARK   21  A    between atoms: _45  and  _46
REMARK   22  A    between atoms: _49  and  _51
REMARK   23  A    between atoms: _51  and  _52
REMARK   24  A    between atoms: _54  and  _56
REMARK   25  A    between atoms: _56  and  _57
REMARK   26  A    between atoms: _60  and  _62
REMARK   27  A    between atoms: _62  and  _63
REMARK   28  A    between atoms: _62  and  _65
REMARK   29  A    between atoms: _65  and  _66
REMARK   30  A    between atoms: _69  and  _71
REMARK   31  A    between atoms: _71  and  _72
REMARK   32  A    between atoms: _71  and  _74
REMARK   33  A    between atoms: _74  and  _75
REMARK   34  A    between atoms: _78  and  _80
REMARK   35  A    between atoms: _80  and  _81
REMARK   36  A    between atoms: _80  and  _83
REMARK   37  A    between atoms: _83  and  _84
REMARK   38  A    between atoms: _87  and  _89
REMARK   39  A    between atoms: _89  and  _90
REMARK   40  A    between atoms: _89  and  _92
REMARK   41  A    between atoms: _95  and  _97
REMARK   42  A    between atoms: _97  and  _98
REMARK   43  A    between atoms: _97  and  _100
REMARK   44  A    between atoms: _100  and  _101
REMARK   45  A    between atoms: _101  and  _102
REMARK   46  A    between atoms: _102  and  _103
REMARK   47  A    between atoms: _103  and  _104
REMARK   48  A    between atoms: _108  and  _110
REMARK   49  A    between atoms: _110  and  _111
REMARK   50  A    between atoms: _110  and  _113
REMARK   51  A    between atoms: _113  and  _114
REMARK   52  A    between atoms: _114  and  _115
REMARK   53  A    between atoms: _117  and  _119
REMARK   54  A    between atoms: _119  and  _120
REMARK   55  A    between atoms: _119  and  _122
REMARK   56  A    between atoms: _122  and  _123
REMARK   57  A    between atoms: _126  and  _128
REMARK   58  A    between atoms: _128  and  _129
REMARK   59  A    between atoms: _131  and  _133
REMARK   60  A    between atoms: _133  and  _134
REMARK   61  A    between atoms: _136  and  _138
REMARK   62  A    between atoms: _138  and  _139
REMARK   63  A    between atoms: _138  and  _141
REMARK   64  A    between atoms: _141  and  _142
REMARK   65  A    between atoms: _145  and  _147
REMARK   66  A    between atoms: _147  and  _148
REMARK   67  A    between atoms: _150  and  _152
REMARK   68  A    between atoms: _152  and  _153
REMARK   69  A    between atoms: _155  and  _157
REMARK   70  A    between atoms: _157  and  _158
REMARK   71  A    between atoms: _157  and  _160
REMARK   72  A    between atoms: _160  and  _161
REMARK   73  A    between atoms: _167  and  _169
REMARK   74  A    between atoms: _169  and  _170
REMARK   75  A    between atoms: _169  and  _172
REMARK   76  A    between atoms: _172  and  _173
REMARK   77  A    between atoms: _176  and  _178
REMARK   78  A    between atoms: _178  and  _179
REMARK   79  A    between atoms: _178  and  _181
REMARK   80  A    between atoms: _181  and  _182
REMARK   81  A    between atoms: _185  and  _187
REMARK   82  A    between atoms: _187  and  _188
REMARK   83  A    between atoms: _187  and  _190
REMARK   84  A    between atoms: _190  and  _191
REMARK   85  A    between atoms: _195  and  _196
REMARK   86  A    between atoms: _201  and  _203
REMARK   87  A    between atoms: _203  and  _204
REMARK   88  A    between atoms: _203  and  _206
REMARK   89  A    between atoms: _209  and  _211
REMARK   90  A    between atoms: _211  and  _212
REMARK   91  A    between atoms: _211  and  _214
REMARK   92  A    between atoms: _214  and  _215
REMARK   93  A    between atoms: _220  and  _222
REMARK   94  A    between atoms: _222  and  _223
REMARK   95  A    between atoms: _222  and  _225
REMARK   96  A    between atoms: _225  and  _226
REMARK   97  A    between atoms: _229  and  _231
REMARK   98  A    between atoms: _231  and  _232
REMARK   99  A    between atoms: _231  and  _234
REMARK  100  A    between atoms: _234  and  _235
REMARK  101  A    between atoms: _238  and  _240
REMARK  102  A    between atoms: _240  and  _241
REMARK  103  A    between atoms: _243  and  _245
REMARK  104  A    between atoms: _245  and  _246
REMARK  105  A    between atoms: _245  and  _248
REMARK  106  A    between atoms: _248  and  _249
REMARK  107  A    between atoms: _249  and  _250
REMARK  108  A    between atoms: _250  and  _251
REMARK  109  A    between atoms: _260  and  _262
REMARK  110  A    between atoms: _262  and  _263
REMARK  111  A    between atoms: _262  and  _265
REMARK  112  A    between atoms: _265  and  _266
REMARK  113  A    between atoms: _271  and  _273
REMARK  114  A    between atoms: _273  and  _274
REMARK  115  A    between atoms: _273  and  _276
REMARK  116  A    between atoms: _276  and  _277
REMARK  117  A    between atoms: _277  and  _278
REMARK  118  A    between atoms: _283  and  _285
REMARK  119  A    between atoms: _285  and  _286
REMARK  120  A    between atoms: _285  and  _288
REMARK  121  A    between atoms: _288  and  _289
REMARK  122  A    between atoms: _292  and  _294
REMARK  123  A    between atoms: _294  and  _295
REMARK  124  A    between atoms: _294  and  _297
REMARK  125  A    between atoms: _297  and  _298
REMARK  126  A    between atoms: _301  and  _303
REMARK  127  A    between atoms: _303  and  _304
REMARK  128  A    between atoms: _303  and  _306
REMARK  129  A    between atoms: _306  and  _307
REMARK  130  A    between atoms: _310  and  _312
REMARK  131  A    between atoms: _312  and  _313
REMARK  132  A    between atoms: _312  and  _315
REMARK  133  A    between atoms: _315  and  _316
REMARK  134  A    between atoms: _319  and  _321
REMARK  135  A    between atoms: _321  and  _322
REMARK  136  A    between atoms: _324  and  _326
REMARK  137  A    between atoms: _326  and  _327
REMARK  138  A    between atoms: _330  and  _332
REMARK  139  A    between atoms: _332  and  _333
REMARK  140  A    between atoms: _332  and  _335
REMARK  141  A    between atoms: _335  and  _336
REMARK  142  A    between atoms: _339  and  _341
REMARK  143  A    between atoms: _341  and  _342
REMARK  144  A    between atoms: _341  and  _344
REMARK  145  A    between atoms: _344  and  _345
REMARK  146  A    between atoms: _348  and  _350
REMARK  147  A    between atoms: _350  and  _351
REMARK  148  A    between atoms: _350  and  _353
REMARK  149  A    between atoms: _353  and  _354
REMARK  150  A    between atoms: _357  and  _359
REMARK  151  A    between atoms: _359  and  _360
REMARK  152  A    between atoms: _359  and  _362
REMARK  153  A    between atoms: _365  and  _367
REMARK  154  A    between atoms: _367  and  _368
REMARK  155  A    between atoms: _367  and  _370
REMARK  156  A    between atoms: _370  and  _371
REMARK  157  A    between atoms: _371  and  _372
REMARK  158  A    between atoms: _372  and  _373
REMARK  159  A    between atoms: _373  and  _374
REMARK  160  A    between atoms: _378  and  _380
REMARK  161  A    between atoms: _380  and  _381
REMARK  162  A    between atoms: _380  and  _383
REMARK  163  A    between atoms: _383  and  _384
REMARK  164  A    between atoms: _384  and  _385
REMARK  165  A    between atoms: _387  and  _389
REMARK  166  A    between atoms: _389  and  _390
REMARK  167  A    between atoms: _389  and  _392
REMARK  168  A    between atoms: _392  and  _393
REMARK  169  A    between atoms: _396  and  _398
REMARK  170  A    between atoms: _398  and  _399
REMARK  171  A    between atoms: _401  and  _403
REMARK  172  A    between atoms: _403  and  _404
REMARK  173  A    between atoms: _406  and  _408
REMARK  174  A    between atoms: _408  and  _409
REMARK  175  A    between atoms: _408  and  _411
REMARK  176  A    between atoms: _411  and  _412
REMARK  177  A    between atoms: _415  and  _417
REMARK  178  A    between atoms: _417  and  _418
REMARK  179  A    between atoms: _420  and  _422
REMARK  180  A    between atoms: _422  and  _423
REMARK  181  A    between atoms: _425  and  _427
REMARK  182  A    between atoms: _427  and  _428
REMARK  183  A    between atoms: _427  and  _430
REMARK  184  A    between atoms: _430  and  _431
REMARK  185  A    between atoms: _434  and  _436
REMARK  186  A    between atoms: _436  and  _437
REMARK  187  A    between atoms: _436  and  _439
REMARK  188  A    between atoms: _439  and  _440
REMARK  189  A    between atoms: _444  and  _445
REMARK  190  A    between atoms: _450  and  _452
REMARK  191  A    between atoms: _452  and  _453
REMARK  192  A    between atoms: _452  and  _455
REMARK  193  A    between atoms: _455  and  _456
REMARK  194  A    between atoms: _460  and  _461
REMARK  195  A    between atoms: _466  and  _468
REMARK  196  A    between atoms: _468  and  _469
REMARK  197  A    between atoms: _468  and  _471
REMARK  198  A    between atoms: _474  and  _476
REMARK  199  A    between atoms: _476  and  _477
REMARK  200  A    between atoms: _476  and  _479
REMARK  201  A    between atoms: _479  and  _480
REMARK  202  A    between atoms: _485  and  _487
REMARK  203  A    between atoms: _487  and  _488
REMARK  204  A    between atoms: _487  and  _490
REMARK  205  A    between atoms: _490  and  _491
REMARK  206  A    between atoms: _494  and  _496
REMARK  207  A    between atoms: _496  and  _497
REMARK  208  A    between atoms: _496  and  _499
REMARK  209  A    between atoms: _499  and  _500
REMARK  210  A    between atoms: _503  and  _505
REMARK  211  A    between atoms: _505  and  _506
REMARK  212  A    between atoms: _508  and  _510
REMARK  213  A    between atoms: _510  and  _511
REMARK  214  A    between atoms: _510  and  _513
REMARK  215  A    between atoms: _513  and  _514
REMARK  216  A    between atoms: _514  and  _515
REMARK  217  A    between atoms: _515  and  _516
REMARK  218  A    between atoms: _525  and  _527
REMARK  219  A    between atoms: _527  and  _528
REMARK  220  A    between atoms: _527  and  _530
REMARK  221  A    between atoms: _530  and  _531
REMARK                            x       y       z     vdW  Elec       q    Type
REMARK                         _______ _______ _______ _____ _____    ______ ____
ROOT
ATOM      1  O   HOH     1      -8.347  -9.638  10.608  0.00  0.00    +0.000 OA
ENDROOT
TORSDOF 0
REMARK  Name = ../refined-set-2016/4heg/4heg_pocket.pdb
REMARK  221 active torsions:
REMARK  status: ('A' for Active; 'I' for Inactive)
REMARK    1  A    between atoms: _1  and  _3
REMARK    2  A    between atoms: _3  and  _4
REMARK    3  A    between atoms: _3  and  _6
REMARK    4  A    between atoms: _6  and  _7
REMARK    5  A    between atoms: _7  and  _8
REMARK    6  A    between atoms: _13  and  _15
REMARK    7  A    between atoms: _15  and  _16
REMARK    8  A    between atoms: _15  and  _18
REMARK    9  A    between atoms: _18  and  _19
REMARK   10  A    between atoms: _22  and  _24
REMARK   11  A    between atoms: _24  and  _25
REMARK   12  A    between atoms: _24  and  _27
REMARK   13  A    between atoms: _27  and  _28
REMARK   14  A    between atoms: _31  and  _33
REMARK   15  A    between atoms: _33  and  _34
REMARK   16  A    between atoms: _33  and  _36
REMARK   17  A    between atoms: _36  and  _37
REMARK   18  A    between atoms: _40  and  _42
REMARK   19  A    between atoms: _42  and  _43
REMARK   20  A    between atoms: _42  and  _45
REMARK   21  A    between atoms: _45  and  _46
REMARK   22  A    between atoms: _49  and  _51
REMARK   23  A    between atoms: _51  and  _52
REMARK   24  A    between atoms: _54  and  _56
REMARK   25  A    between atoms: _56  and  _57
REMARK   26  A    between atoms: _60  and  _62
REMARK   27  A    between atoms: _62  and  _63
REMARK   28  A    between atoms: _62  and  _65
REMARK   29  A    between atoms: _65  and  _66
REMARK   30  A    between atoms: _69  and  _71
REMARK   31  A    between atoms: _71  and  _72
REMARK   32  A    between atoms: _71  and  _74
REMARK   33  A    between atoms: _74  and  _75
REMARK   34  A    between atoms: _78  and  _80
REMARK   35  A    between atoms: _80  and  _81
REMARK   36  A    between atoms: _80  and  _83
REMARK   37  A    between atoms: _83  and  _84
REMARK   38  A    between atoms: _87  and  _89
REMARK   39  A    between atoms: _89  and  _90
REMARK   40  A    between atoms: _89  and  _92
REMARK   41  A    between atoms: _95  and  _97
REMARK   42  A    between atoms: _97  and  _98
REMARK   43  A    between atoms: _97  and  _100
REMARK   44  A    between atoms: _100  and  _101
REMARK   45  A    between atoms: _101  and  _102
REMARK   46  A    between atoms: _102  and  _103
REMARK   47  A    between atoms: _103  and  _104
REMARK   48  A    between atoms: _108  and  _110
REMARK   49  A    between atoms: _110  and  _111
REMARK   50  A    between atoms: _110  and  _113
REMARK   51  A    between atoms: _113  and  _114
REMARK   52  A    between atoms: _114  and  _115
REMARK   53  A    between atoms: _117  and  _119
REMARK   54  A    between atoms: _119  and  _120
REMARK   55  A    between atoms: _119  and  _122
REMARK   56  A    between atoms: _122  and  _123
REMARK   57  A    between atoms: _126  and  _128
REMARK   58  A    between atoms: _128  and  _129
REMARK   59  A    between atoms: _131  and  _133
REMARK   60  A    between atoms: _133  and  _134
REMARK   61  A    between atoms: _136  and  _138
REMARK   62  A    between atoms: _138  and  _139
REMARK   63  A    between atoms: _138  and  _141
REMARK   64  A    between atoms: _141  and  _142
REMARK   65  A    between atoms: _145  and  _147
REMARK   66  A    between atoms: _147  and  _148
REMARK   67  A    between atoms: _150  and  _152
REMARK   68  A    between atoms: _152  and  _153
REMARK   69  A    between atoms: _155  and  _157
REMARK   70  A    between atoms: _157  and  _158
REMARK   71  A    between atoms: _157  and  _160
REMARK   72  A    between atoms: _160  and  _161
REMARK   73  A    between atoms: _167  and  _169
REMARK   74  A    between atoms: _169  and  _170
REMARK   75  A    between atoms: _169  and  _172
REMARK   76  A    between atoms: _172  and  _173
REMARK   77  A    between atoms: _176  and  _178
REMARK   78  A    between atoms: _178  and  _179
REMARK   79  A    between atoms: _178  and  _181
REMARK   80  A    between atoms: _181  and  _182
REMARK   81  A    between atoms: _185  and  _187
REMARK   82  A    between atoms: _187  and  _188
REMARK   83  A    between atoms: _187  and  _190
REMARK   84  A    between atoms: _190  and  _191
REMARK   85  A    between atoms: _195  and  _196
REMARK   86  A    between atoms: _201  and  _203
REMARK   87  A    between atoms: _203  and  _204
REMARK   88  A    between atoms: _203  and  _206
REMARK   89  A    between atoms: _209  and  _211
REMARK   90  A    between atoms: _211  and  _212
REMARK   91  A    between atoms: _211  and  _214
REMARK   92  A    between atoms: _214  and  _215
REMARK   93  A    between atoms: _220  and  _222
REMARK   94  A    between atoms: _222  and  _223
REMARK   95  A    between atoms: _222  and  _225
REMARK   96  A    between atoms: _225  and  _226
REMARK   97  A    between atoms: _229  and  _231
REMARK   98  A    between atoms: _231  and  _232
REMARK   99  A    between atoms: _231  and  _234
REMARK  100  A    between atoms: _234  and  _235
REMARK  101  A    between atoms: _238  and  _240
REMARK  102  A    between atoms: _240  and  _241
REMARK  103  A    between atoms: _243  and  _245
REMARK  104  A    between atoms: _245  and  _246
REMARK  105  A    between atoms: _245  and  _248
REMARK  106  A    between atoms: _248  and  _249
REMARK  107  A    between atoms: _249  and  _250
REMARK  108  A    between atoms: _250  and  _251
REMARK  109  A    between atoms: _260  and  _262
REMARK  110  A    between atoms: _262  and  _263
REMARK  111  A    between atoms: _262  and  _265
REMARK  112  A    between atoms: _265  and  _266
REMARK  113  A    between atoms: _271  and  _273
REMARK  114  A    between atoms: _273  and  _274
REMARK  115  A    between atoms: _273  and  _276
REMARK  116  A    between atoms: _276  and  _277
REMARK  117  A    between atoms: _277  and  _278
REMARK  118  A    between atoms: _283  and  _285
REMARK  119  A    between atoms: _285  and  _286
REMARK  120  A    between atoms: _285  and  _288
REMARK  121  A    between atoms: _288  and  _289
REMARK  122  A    between atoms: _292  and  _294
REMARK  123  A    between atoms: _294  and  _295
REMARK  124  A    between atoms: _294  and  _297
REMARK  125  A    between atoms: _297  and  _298
REMARK  126  A    between atoms: _301  and  _303
REMARK  127  A    between atoms: _303  and  _304
REMARK  128  A    between atoms: _303  and  _306
REMARK  129  A    between atoms: _306  and  _307
REMARK  130  A    between atoms: _310  and  _312
REMARK  131  A    between atoms: _312  and  _313
REMARK  132  A    between atoms: _312  and  _315
REMARK  133  A    between atoms: _315  and  _316
REMARK  134  A    between atoms: _319  and  _321
REMARK  135  A    between atoms: _321  and  _322
REMARK  136  A    between atoms: _324  and  _326
REMARK  137  A    between atoms: _326  and  _327
REMARK  138  A    between atoms: _330  and  _332
REMARK  139  A    between atoms: _332  and  _333
REMARK  140  A    between atoms: _332  and  _335
REMARK  141  A    between atoms: _335  and  _336
REMARK  142  A    between atoms: _339  and  _341
REMARK  143  A    between atoms: _341  and  _342
REMARK  144  A    between atoms: _341  and  _344
REMARK  145  A    between atoms: _344  and  _345
REMARK  146  A    between atoms: _348  and  _350
REMARK  147  A    between atoms: _350  and  _351
REMARK  148  A    between atoms: _350  and  _353
REMARK  149  A    between atoms: _353  and  _354
REMARK  150  A    between atoms: _357  and  _359
REMARK  151  A    between atoms: _359  and  _360
REMARK  152  A    between atoms: _359  and  _362
REMARK  153  A    between atoms: _365  and  _367
REMARK  154  A    between atoms: _367  and  _368
REMARK  155  A    between atoms: _367  and  _370
REMARK  156  A    between atoms: _370  and  _371
REMARK  157  A    between atoms: _371  and  _372
REMARK  158  A    between atoms: _372  and  _373
REMARK  159  A    between atoms: _373  and  _374
REMARK  160  A    between atoms: _378  and  _380
REMARK  161  A    between atoms: _380  and  _381
REMARK  162  A    between atoms: _380  and  _383
REMARK  163  A    between atoms: _383  and  _384
REMARK  164  A    between atoms: _384  and  _385
REMARK  165  A    between atoms: _387  and  _389
REMARK  166  A    between atoms: _389  and  _390
REMARK  167  A    between atoms: _389  and  _392
REMARK  168  A    between atoms: _392  and  _393
REMARK  169  A    between atoms: _396  and  _398
REMARK  170  A    between atoms: _398  and  _399
REMARK  171  A    between atoms: _401  and  _403
REMARK  172  A    between atoms: _403  and  _404
REMARK  173  A    between atoms: _406  and  _408
REMARK  174  A    between atoms: _408  and  _409
REMARK  175  A    between atoms: _408  and  _411
REMARK  176  A    between atoms: _411  and  _412
REMARK  177  A    between atoms: _415  and  _417
REMARK  178  A    between atoms: _417  and  _418
REMARK  179  A    between atoms: _420  and  _422
REMARK  180  A    between atoms: _422  and  _423
REMARK  181  A    between atoms: _425  and  _427
REMARK  182  A    between atoms: _427  and  _428
REMARK  183  A    between atoms: _427  and  _430
REMARK  184  A    between atoms: _430  and  _431
REMARK  185  A    between atoms: _434  and  _436
REMARK  186  A    between atoms: _436  and  _437
REMARK  187  A    between atoms: _436  and  _439
REMARK  188  A    between atoms: _439  and  _440
REMARK  189  A    between atoms: _444  and  _445
REMARK  190  A    between atoms: _450  and  _452
REMARK  191  A    between atoms: _452  and  _453
REMARK  192  A    between atoms: _452  and  _455
REMARK  193  A    between atoms: _455  and  _456
REMARK  194  A    between atoms: _460  and  _461
REMARK  195  A    between atoms: _466  and  _468
REMARK  196  A    between atoms: _468  and  _469
REMARK  197  A    between atoms: _468  and  _471
REMARK  198  A    between atoms: _474  and  _476
REMARK  199  A    between atoms: _476  and  _477
REMARK  200  A    between atoms: _476  and  _479
REMARK  201  A    between atoms: _479  and  _480
REMARK  202  A    between atoms: _485  and  _487
REMARK  203  A    between atoms: _487  and  _488
REMARK  204  A    between atoms: _487  and  _490
REMARK  205  A    between atoms: _490  and  _491
REMARK  206  A    between atoms: _494  and  _496
REMARK  207  A    between atoms: _496  and  _497
REMARK  208  A    between atoms: _496  and  _499
REMARK  209  A    between atoms: _499  and  _500
REMARK  210  A    between atoms: _503  and  _505
REMARK  211  A    between atoms: _505  and  _506
REMARK  212  A    between atoms: _508  and  _510
REMARK  213  A    between atoms: _510  and  _511
REMARK  214  A    between atoms: _510  and  _513
REMARK  215  A    between atoms: _513  and  _514
REMARK  216  A    between atoms: _514  and  _515
REMARK  217  A    between atoms: _515  and  _516
REMARK  218  A    between atoms: _525  and  _527
REMARK  219  A    between atoms: _527  and  _528
REMARK  220  A    between atoms: _527  and  _530
REMARK  221  A    between atoms: _530  and  _531
REMARK                            x       y       z     vdW  Elec       q    Type
REMARK                         _______ _______ _______ _____ _____    ______ ____
ROOT
ATOM      1  O   HOH     1      -9.026 -14.387  21.251  0.00  0.00    +0.000 OA
ENDROOT
TORSDOF 0
REMARK  Name = ../refined-set-2016/4heg/4heg_pocket.pdb
REMARK  221 active torsions:
REMARK  status: ('A' for Active; 'I' for Inactive)
REMARK    1  A    between atoms: _1  and  _3
REMARK    2  A    between atoms: _3  and  _4
REMARK    3  A    between atoms: _3  and  _6
REMARK    4  A    between atoms: _6  and  _7
REMARK    5  A    between atoms: _7  and  _8
REMARK    6  A    between atoms: _13  and  _15
REMARK    7  A    between atoms: _15  and  _16
REMARK    8  A    between atoms: _15  and  _18
REMARK    9  A    between atoms: _18  and  _19
REMARK   10  A    between atoms: _22  and  _24
REMARK   11  A    between atoms: _24  and  _25
REMARK   12  A    between atoms: _24  and  _27
REMARK   13  A    between atoms: _27  and  _28
REMARK   14  A    between atoms: _31  and  _33
REMARK   15  A    between atoms: _33  and  _34
REMARK   16  A    between atoms: _33  and  _36
REMARK   17  A    between atoms: _36  and  _37
REMARK   18  A    between atoms: _40  and  _42
REMARK   19  A    between atoms: _42  and  _43
REMARK   20  A    between atoms: _42  and  _45
REMARK   21  A    between atoms: _45  and  _46
REMARK   22  A    between atoms: _49  and  _51
REMARK   23  A    between atoms: _51  and  _52
REMARK   24  A    between atoms: _54  and  _56
REMARK   25  A    between atoms: _56  and  _57
REMARK   26  A    between atoms: _60  and  _62
REMARK   27  A    between atoms: _62  and  _63
REMARK   28  A    between atoms: _62  and  _65
REMARK   29  A    between atoms: _65  and  _66
REMARK   30  A    between atoms: _69  and  _71
REMARK   31  A    between atoms: _71  and  _72
REMARK   32  A    between atoms: _71  and  _74
REMARK   33  A    between atoms: _74  and  _75
REMARK   34  A    between atoms: _78  and  _80
REMARK   35  A    between atoms: _80  and  _81
REMARK   36  A    between atoms: _80  and  _83
REMARK   37  A    between atoms: _83  and  _84
REMARK   38  A    between atoms: _87  and  _89
REMARK   39  A    between atoms: _89  and  _90
REMARK   40  A    between atoms: _89  and  _92
REMARK   41  A    between atoms: _95  and  _97
REMARK   42  A    between atoms: _97  and  _98
REMARK   43  A    between atoms: _97  and  _100
REMARK   44  A    between atoms: _100  and  _101
REMARK   45  A    between atoms: _101  and  _102
REMARK   46  A    between atoms: _102  and  _103
REMARK   47  A    between atoms: _103  and  _104
REMARK   48  A    between atoms: _108  and  _110
REMARK   49  A    between atoms: _110  and  _111
REMARK   50  A    between atoms: _110  and  _113
REMARK   51  A    between atoms: _113  and  _114
REMARK   52  A    between atoms: _114  and  _115
REMARK   53  A    between atoms: _117  and  _119
REMARK   54  A    between atoms: _119  and  _120
REMARK   55  A    between atoms: _119  and  _122
REMARK   56  A    between atoms: _122  and  _123
REMARK   57  A    between atoms: _126  and  _128
REMARK   58  A    between atoms: _128  and  _129
REMARK   59  A    between atoms: _131  and  _133
REMARK   60  A    between atoms: _133  and  _134
REMARK   61  A    between atoms: _136  and  _138
REMARK   62  A    between atoms: _138  and  _139
REMARK   63  A    between atoms: _138  and  _141
REMARK   64  A    between atoms: _141  and  _142
REMARK   65  A    between atoms: _145  and  _147
REMARK   66  A    between atoms: _147  and  _148
REMARK   67  A    between atoms: _150  and  _152
REMARK   68  A    between atoms: _152  and  _153
REMARK   69  A    between atoms: _155  and  _157
REMARK   70  A    between atoms: _157  and  _158
REMARK   71  A    between atoms: _157  and  _160
REMARK   72  A    between atoms: _160  and  _161
REMARK   73  A    between atoms: _167  and  _169
REMARK   74  A    between atoms: _169  and  _170
REMARK   75  A    between atoms: _169  and  _172
REMARK   76  A    between atoms: _172  and  _173
REMARK   77  A    between atoms: _176  and  _178
REMARK   78  A    between atoms: _178  and  _179
REMARK   79  A    between atoms: _178  and  _181
REMARK   80  A    between atoms: _181  and  _182
REMARK   81  A    between atoms: _185  and  _187
REMARK   82  A    between atoms: _187  and  _188
REMARK   83  A    between atoms: _187  and  _190
REMARK   84  A    between atoms: _190  and  _191
REMARK   85  A    between atoms: _195  and  _196
REMARK   86  A    between atoms: _201  and  _203
REMARK   87  A    between atoms: _203  and  _204
REMARK   88  A    between atoms: _203  and  _206
REMARK   89  A    between atoms: _209  and  _211
REMARK   90  A    between atoms: _211  and  _212
REMARK   91  A    between atoms: _211  and  _214
REMARK   92  A    between atoms: _214  and  _215
REMARK   93  A    between atoms: _220  and  _222
REMARK   94  A    between atoms: _222  and  _223
REMARK   95  A    between atoms: _222  and  _225
REMARK   96  A    between atoms: _225  and  _226
REMARK   97  A    between atoms: _229  and  _231
REMARK   98  A    between atoms: _231  and  _232
REMARK   99  A    between atoms: _231  and  _234
REMARK  100  A    between atoms: _234  and  _235
REMARK  101  A    between atoms: _238  and  _240
REMARK  102  A    between atoms: _240  and  _241
REMARK  103  A    between atoms: _243  and  _245
REMARK  104  A    between atoms: _245  and  _246
REMARK  105  A    between atoms: _245  and  _248
REMARK  106  A    between atoms: _248  and  _249
REMARK  107  A    between atoms: _249  and  _250
REMARK  108  A    between atoms: _250  and  _251
REMARK  109  A    between atoms: _260  and  _262
REMARK  110  A    between atoms: _262  and  _263
REMARK  111  A    between atoms: _262  and  _265
REMARK  112  A    between atoms: _265  and  _266
REMARK  113  A    between atoms: _271  and  _273
REMARK  114  A    between atoms: _273  and  _274
REMARK  115  A    between atoms: _273  and  _276
REMARK  116  A    between atoms: _276  and  _277
REMARK  117  A    between atoms: _277  and  _278
REMARK  118  A    between atoms: _283  and  _285
REMARK  119  A    between atoms: _285  and  _286
REMARK  120  A    between atoms: _285  and  _288
REMARK  121  A    between atoms: _288  and  _289
REMARK  122  A    between atoms: _292  and  _294
REMARK  123  A    between atoms: _294  and  _295
REMARK  124  A    between atoms: _294  and  _297
REMARK  125  A    between atoms: _297  and  _298
REMARK  126  A    between atoms: _301  and  _303
REMARK  127  A    between atoms: _303  and  _304
REMARK  128  A    between atoms: _303  and  _306
REMARK  129  A    between atoms: _306  and  _307
REMARK  130  A    between atoms: _310  and  _312
REMARK  131  A    between atoms: _312  and  _313
REMARK  132  A    between atoms: _312  and  _315
REMARK  133  A    between atoms: _315  and  _316
REMARK  134  A    between atoms: _319  and  _321
REMARK  135  A    between atoms: _321  and  _322
REMARK  136  A    between atoms: _324  and  _326
REMARK  137  A    between atoms: _326  and  _327
REMARK  138  A    between atoms: _330  and  _332
REMARK  139  A    between atoms: _332  and  _333
REMARK  140  A    between atoms: _332  and  _335
REMARK  141  A    between atoms: _335  and  _336
REMARK  142  A    between atoms: _339  and  _341
REMARK  143  A    between atoms: _341  and  _342
REMARK  144  A    between atoms: _341  and  _344
REMARK  145  A    between atoms: _344  and  _345
REMARK  146  A    between atoms: _348  and  _350
REMARK  147  A    between atoms: _350  and  _351
REMARK  148  A    between atoms: _350  and  _353
REMARK  149  A    between atoms: _353  and  _354
REMARK  150  A    between atoms: _357  and  _359
REMARK  151  A    between atoms: _359  and  _360
REMARK  152  A    between atoms: _359  and  _362
REMARK  153  A    between atoms: _365  and  _367
REMARK  154  A    between atoms: _367  and  _368
REMARK  155  A    between atoms: _367  and  _370
REMARK  156  A    between atoms: _370  and  _371
REMARK  157  A    between atoms: _371  and  _372
REMARK  158  A    between atoms: _372  and  _373
REMARK  159  A    between atoms: _373  and  _374
REMARK  160  A    between atoms: _378  and  _380
REMARK  161  A    between atoms: _380  and  _381
REMARK  162  A    between atoms: _380  and  _383
REMARK  163  A    between atoms: _383  and  _384
REMARK  164  A    between atoms: _384  and  _385
REMARK  165  A    between atoms: _387  and  _389
REMARK  166  A    between atoms: _389  and  _390
REMARK  167  A    between atoms: _389  and  _392
REMARK  168  A    between atoms: _392  and  _393
REMARK  169  A    between atoms: _396  and  _398
REMARK  170  A    between atoms: _398  and  _399
REMARK  171  A    between atoms: _401  and  _403
REMARK  172  A    between atoms: _403  and  _404
REMARK  173  A    between atoms: _406  and  _408
REMARK  174  A    between atoms: _408  and  _409
REMARK  175  A    between atoms: _408  and  _411
REMARK  176  A    between atoms: _411  and  _412
REMARK  177  A    between atoms: _415  and  _417
REMARK  178  A    between atoms: _417  and  _418
REMARK  179  A    between atoms: _420  and  _422
REMARK  180  A    between atoms: _422  and  _423
REMARK  181  A    between atoms: _425  and  _427
REMARK  182  A    between atoms: _427  and  _428
REMARK  183  A    between atoms: _427  and  _430
REMARK  184  A    between atoms: _430  and  _431
REMARK  185  A    between atoms: _434  and  _436
REMARK  186  A    between atoms: _436  and  _437
REMARK  187  A    between atoms: _436  and  _439
REMARK  188  A    between atoms: _439  and  _440
REMARK  189  A    between atoms: _444  and  _445
REMARK  190  A    between atoms: _450  and  _452
REMARK  191  A    between atoms: _452  and  _453
REMARK  192  A    between atoms: _452  and  _455
REMARK  193  A    between atoms: _455  and  _456
REMARK  194  A    between atoms: _460  and  _461
REMARK  195  A    between atoms: _466  and  _468
REMARK  196  A    between atoms: _468  and  _469
REMARK  197  A    between atoms: _468  and  _471
REMARK  198  A    between atoms: _474  and  _476
REMARK  199  A    between atoms: _476  and  _477
REMARK  200  A    between atoms: _476  and  _479
REMARK  201  A    between atoms: _479  and  _480
REMARK  202  A    between atoms: _485  and  _487
REMARK  203  A    between atoms: _487  and  _488
REMARK  204  A    between atoms: _487  and  _490
REMARK  205  A    between atoms: _490  and  _491
REMARK  206  A    between atoms: _494  and  _496
REMARK  207  A    between atoms: _496  and  _497
REMARK  208  A    between atoms: _496  and  _499
REMARK  209  A    between atoms: _499  and  _500
REMARK  210  A    between atoms: _503  and  _505
REMARK  211  A    between atoms: _505  and  _506
REMARK  212  A    between atoms: _508  and  _510
REMARK  213  A    between atoms: _510  and  _511
REMARK  214  A    between atoms: _510  and  _513
REMARK  215  A    between atoms: _513  and  _514
REMARK  216  A    between atoms: _514  and  _515
REMARK  217  A    between atoms: _515  and  _516
REMARK  218  A    between atoms: _525  and  _527
REMARK  219  A    between atoms: _527  and  _528
REMARK  220  A    between atoms: _527  and  _530
REMARK  221  A    between atoms: _530  and  _531
REMARK                            x       y       z     vdW  Elec       q    Type
REMARK                         _______ _______ _______ _____ _____    ______ ____
ROOT
ATOM      1  O   HOH     1      -3.130 -17.048  15.796  0.00  0.00    +0.000 OA
ENDROOT
TORSDOF 0
REMARK  Name = ../refined-set-2016/4heg/4heg_pocket.pdb
REMARK  221 active torsions:
REMARK  status: ('A' for Active; 'I' for Inactive)
REMARK    1  A    between atoms: _1  and  _3
REMARK    2  A    between atoms: _3  and  _4
REMARK    3  A    between atoms: _3  and  _6
REMARK    4  A    between atoms: _6  and  _7
REMARK    5  A    between atoms: _7  and  _8
REMARK    6  A    between atoms: _13  and  _15
REMARK    7  A    between atoms: _15  and  _16
REMARK    8  A    between atoms: _15  and  _18
REMARK    9  A    between atoms: _18  and  _19
REMARK   10  A    between atoms: _22  and  _24
REMARK   11  A    between atoms: _24  and  _25
REMARK   12  A    between atoms: _24  and  _27
REMARK   13  A    between atoms: _27  and  _28
REMARK   14  A    between atoms: _31  and  _33
REMARK   15  A    between atoms: _33  and  _34
REMARK   16  A    between atoms: _33  and  _36
REMARK   17  A    between atoms: _36  and  _37
REMARK   18  A    between atoms: _40  and  _42
REMARK   19  A    between atoms: _42  and  _43
REMARK   20  A    between atoms: _42  and  _45
REMARK   21  A    between atoms: _45  and  _46
REMARK   22  A    between atoms: _49  and  _51
REMARK   23  A    between atoms: _51  and  _52
REMARK   24  A    between atoms: _54  and  _56
REMARK   25  A    between atoms: _56  and  _57
REMARK   26  A    between atoms: _60  and  _62
REMARK   27  A    between atoms: _62  and  _63
REMARK   28  A    between atoms: _62  and  _65
REMARK   29  A    between atoms: _65  and  _66
REMARK   30  A    between atoms: _69  and  _71
REMARK   31  A    between atoms: _71  and  _72
REMARK   32  A    between atoms: _71  and  _74
REMARK   33  A    between atoms: _74  and  _75
REMARK   34  A    between atoms: _78  and  _80
REMARK   35  A    between atoms: _80  and  _81
REMARK   36  A    between atoms: _80  and  _83
REMARK   37  A    between atoms: _83  and  _84
REMARK   38  A    between atoms: _87  and  _89
REMARK   39  A    between atoms: _89  and  _90
REMARK   40  A    between atoms: _89  and  _92
REMARK   41  A    between atoms: _95  and  _97
REMARK   42  A    between atoms: _97  and  _98
REMARK   43  A    between atoms: _97  and  _100
REMARK   44  A    between atoms: _100  and  _101
REMARK   45  A    between atoms: _101  and  _102
REMARK   46  A    between atoms: _102  and  _103
REMARK   47  A    between atoms: _103  and  _104
REMARK   48  A    between atoms: _108  and  _110
REMARK   49  A    between atoms: _110  and  _111
REMARK   50  A    between atoms: _110  and  _113
REMARK   51  A    between atoms: _113  and  _114
REMARK   52  A    between atoms: _114  and  _115
REMARK   53  A    between atoms: _117  and  _119
REMARK   54  A    between atoms: _119  and  _120
REMARK   55  A    between atoms: _119  and  _122
REMARK   56  A    between atoms: _122  and  _123
REMARK   57  A    between atoms: _126  and  _128
REMARK   58  A    between atoms: _128  and  _129
REMARK   59  A    between atoms: _131  and  _133
REMARK   60  A    between atoms: _133  and  _134
REMARK   61  A    between atoms: _136  and  _138
REMARK   62  A    between atoms: _138  and  _139
REMARK   63  A    between atoms: _138  and  _141
REMARK   64  A    between atoms: _141  and  _142
REMARK   65  A    between atoms: _145  and  _147
REMARK   66  A    between atoms: _147  and  _148
REMARK   67  A    between atoms: _150  and  _152
REMARK   68  A    between atoms: _152  and  _153
REMARK   69  A    between atoms: _155  and  _157
REMARK   70  A    between atoms: _157  and  _158
REMARK   71  A    between atoms: _157  and  _160
REMARK   72  A    between atoms: _160  and  _161
REMARK   73  A    between atoms: _167  and  _169
REMARK   74  A    between atoms: _169  and  _170
REMARK   75  A    between atoms: _169  and  _172
REMARK   76  A    between atoms: _172  and  _173
REMARK   77  A    between atoms: _176  and  _178
REMARK   78  A    between atoms: _178  and  _179
REMARK   79  A    between atoms: _178  and  _181
REMARK   80  A    between atoms: _181  and  _182
REMARK   81  A    between atoms: _185  and  _187
REMARK   82  A    between atoms: _187  and  _188
REMARK   83  A    between atoms: _187  and  _190
REMARK   84  A    between atoms: _190  and  _191
REMARK   85  A    between atoms: _195  and  _196
REMARK   86  A    between atoms: _201  and  _203
REMARK   87  A    between atoms: _203  and  _204
REMARK   88  A    between atoms: _203  and  _206
REMARK   89  A    between atoms: _209  and  _211
REMARK   90  A    between atoms: _211  and  _212
REMARK   91  A    between atoms: _211  and  _214
REMARK   92  A    between atoms: _214  and  _215
REMARK   93  A    between atoms: _220  and  _222
REMARK   94  A    between atoms: _222  and  _223
REMARK   95  A    between atoms: _222  and  _225
REMARK   96  A    between atoms: _225  and  _226
REMARK   97  A    between atoms: _229  and  _231
REMARK   98  A    between atoms: _231  and  _232
REMARK   99  A    between atoms: _231  and  _234
REMARK  100  A    between atoms: _234  and  _235
REMARK  101  A    between atoms: _238  and  _240
REMARK  102  A    between atoms: _240  and  _241
REMARK  103  A    between atoms: _243  and  _245
REMARK  104  A    between atoms: _245  and  _246
REMARK  105  A    between atoms: _245  and  _248
REMARK  106  A    between atoms: _248  and  _249
REMARK  107  A    between atoms: _249  and  _250
REMARK  108  A    between atoms: _250  and  _251
REMARK  109  A    between atoms: _260  and  _262
REMARK  110  A    between atoms: _262  and  _263
REMARK  111  A    between atoms: _262  and  _265
REMARK  112  A    between atoms: _265  and  _266
REMARK  113  A    between atoms: _271  and  _273
REMARK  114  A    between atoms: _273  and  _274
REMARK  115  A    between atoms: _273  and  _276
REMARK  116  A    between atoms: _276  and  _277
REMARK  117  A    between atoms: _277  and  _278
REMARK  118  A    between atoms: _283  and  _285
REMARK  119  A    between atoms: _285  and  _286
REMARK  120  A    between atoms: _285  and  _288
REMARK  121  A    between atoms: _288  and  _289
REMARK  122  A    between atoms: _292  and  _294
REMARK  123  A    between atoms: _294  and  _295
REMARK  124  A    between atoms: _294  and  _297
REMARK  125  A    between atoms: _297  and  _298
REMARK  126  A    between atoms: _301  and  _303
REMARK  127  A    between atoms: _303  and  _304
REMARK  128  A    between atoms: _303  and  _306
REMARK  129  A    between atoms: _306  and  _307
REMARK  130  A    between atoms: _310  and  _312
REMARK  131  A    between atoms: _312  and  _313
REMARK  132  A    between atoms: _312  and  _315
REMARK  133  A    between atoms: _315  and  _316
REMARK  134  A    between atoms: _319  and  _321
REMARK  135  A    between atoms: _321  and  _322
REMARK  136  A    between atoms: _324  and  _326
REMARK  137  A    between atoms: _326  and  _327
REMARK  138  A    between atoms: _330  and  _332
REMARK  139  A    between atoms: _332  and  _333
REMARK  140  A    between atoms: _332  and  _335
REMARK  141  A    between atoms: _335  and  _336
REMARK  142  A    between atoms: _339  and  _341
REMARK  143  A    between atoms: _341  and  _342
REMARK  144  A    between atoms: _341  and  _344
REMARK  145  A    between atoms: _344  and  _345
REMARK  146  A    between atoms: _348  and  _350
REMARK  147  A    between atoms: _350  and  _351
REMARK  148  A    between atoms: _350  and  _353
REMARK  149  A    between atoms: _353  and  _354
REMARK  150  A    between atoms: _357  and  _359
REMARK  151  A    between atoms: _359  and  _360
REMARK  152  A    between atoms: _359  and  _362
REMARK  153  A    between atoms: _365  and  _367
REMARK  154  A    between atoms: _367  and  _368
REMARK  155  A    between atoms: _367  and  _370
REMARK  156  A    between atoms: _370  and  _371
REMARK  157  A    between atoms: _371  and  _372
REMARK  158  A    between atoms: _372  and  _373
REMARK  159  A    between atoms: _373  and  _374
REMARK  160  A    between atoms: _378  and  _380
REMARK  161  A    between atoms: _380  and  _381
REMARK  162  A    between atoms: _380  and  _383
REMARK  163  A    between atoms: _383  and  _384
REMARK  164  A    between atoms: _384  and  _385
REMARK  165  A    between atoms: _387  and  _389
REMARK  166  A    between atoms: _389  and  _390
REMARK  167  A    between atoms: _389  and  _392
REMARK  168  A    between atoms: _392  and  _393
REMARK  169  A    between atoms: _396  and  _398
REMARK  170  A    between atoms: _398  and  _399
REMARK  171  A    between atoms: _401  and  _403
REMARK  172  A    between atoms: _403  and  _404
REMARK  173  A    between atoms: _406  and  _408
REMARK  174  A    between atoms: _408  and  _409
REMARK  175  A    between atoms: _408  and  _411
REMARK  176  A    between atoms: _411  and  _412
REMARK  177  A    between atoms: _415  and  _417
REMARK  178  A    between atoms: _417  and  _418
REMARK  179  A    between atoms: _420  and  _422
REMARK  180  A    between atoms: _422  and  _423
REMARK  181  A    between atoms: _425  and  _427
REMARK  182  A    between atoms: _427  and  _428
REMARK  183  A    between atoms: _427  and  _430
REMARK  184  A    between atoms: _430  and  _431
REMARK  185  A    between atoms: _434  and  _436
REMARK  186  A    between atoms: _436  and  _437
REMARK  187  A    between atoms: _436  and  _439
REMARK  188  A    between atoms: _439  and  _440
REMARK  189  A    between atoms: _444  and  _445
REMARK  190  A    between atoms: _450  and  _452
REMARK  191  A    between atoms: _452  and  _453
REMARK  192  A    between atoms: _452  and  _455
REMARK  193  A    between atoms: _455  and  _456
REMARK  194  A    between atoms: _460  and  _461
REMARK  195  A    between atoms: _466  and  _468
REMARK  196  A    between atoms: _468  and  _469
REMARK  197  A    between atoms: _468  and  _471
REMARK  198  A    between atoms: _474  and  _476
REMARK  199  A    between atoms: _476  and  _477
REMARK  200  A    between atoms: _476  and  _479
REMARK  201  A    between atoms: _479  and  _480
REMARK  202  A    between atoms: _485  and  _487
REMARK  203  A    between atoms: _487  and  _488
REMARK  204  A    between atoms: _487  and  _490
REMARK  205  A    between atoms: _490  and  _491
REMARK  206  A    between atoms: _494  and  _496
REMARK  207  A    between atoms: _496  and  _497
REMARK  208  A    between atoms: _496  and  _499
REMARK  209  A    between atoms: _499  and  _500
REMARK  210  A    between atoms: _503  and  _505
REMARK  211  A    between atoms: _505  and  _506
REMARK  212  A    between atoms: _508  and  _510
REMARK  213  A    between atoms: _510  and  _511
REMARK  214  A    between atoms: _510  and  _513
REMARK  215  A    between atoms: _513  and  _514
REMARK  216  A    between atoms: _514  and  _515
REMARK  217  A    between atoms: _515  and  _516
REMARK  218  A    between atoms: _525  and  _527
REMARK  219  A    between atoms: _527  and  _528
REMARK  220  A    between atoms: _527  and  _530
REMARK  221  A    between atoms: _530  and  _531
REMARK                            x       y       z     vdW  Elec       q    Type
REMARK                         _______ _______ _______ _____ _____    ______ ____
ROOT
ATOM      1  O   HOH     1      -8.098  -7.524  17.504  0.00  0.00    +0.000 OA
ENDROOT
TORSDOF 0
REMARK  Name = ../refined-set-2016/4heg/4heg_pocket.pdb
REMARK  221 active torsions:
REMARK  status: ('A' for Active; 'I' for Inactive)
REMARK    1  A    between atoms: _1  and  _3
REMARK    2  A    between atoms: _3  and  _4
REMARK    3  A    between atoms: _3  and  _6
REMARK    4  A    between atoms: _6  and  _7
REMARK    5  A    between atoms: _7  and  _8
REMARK    6  A    between atoms: _13  and  _15
REMARK    7  A    between atoms: _15  and  _16
REMARK    8  A    between atoms: _15  and  _18
REMARK    9  A    between atoms: _18  and  _19
REMARK   10  A    between atoms: _22  and  _24
REMARK   11  A    between atoms: _24  and  _25
REMARK   12  A    between atoms: _24  and  _27
REMARK   13  A    between atoms: _27  and  _28
REMARK   14  A    between atoms: _31  and  _33
REMARK   15  A    between atoms: _33  and  _34
REMARK   16  A    between atoms: _33  and  _36
REMARK   17  A    between atoms: _36  and  _37
REMARK   18  A    between atoms: _40  and  _42
REMARK   19  A    between atoms: _42  and  _43
REMARK   20  A    between atoms: _42  and  _45
REMARK   21  A    between atoms: _45  and  _46
REMARK   22  A    between atoms: _49  and  _51
REMARK   23  A    between atoms: _51  and  _52
REMARK   24  A    between atoms: _54  and  _56
REMARK   25  A    between atoms: _56  and  _57
REMARK   26  A    between atoms: _60  and  _62
REMARK   27  A    between atoms: _62  and  _63
REMARK   28  A    between atoms: _62  and  _65
REMARK   29  A    between atoms: _65  and  _66
REMARK   30  A    between atoms: _69  and  _71
REMARK   31  A    between atoms: _71  and  _72
REMARK   32  A    between atoms: _71  and  _74
REMARK   33  A    between atoms: _74  and  _75
REMARK   34  A    between atoms: _78  and  _80
REMARK   35  A    between atoms: _80  and  _81
REMARK   36  A    between atoms: _80  and  _83
REMARK   37  A    between atoms: _83  and  _84
REMARK   38  A    between atoms: _87  and  _89
REMARK   39  A    between atoms: _89  and  _90
REMARK   40  A    between atoms: _89  and  _92
REMARK   41  A    between atoms: _95  and  _97
REMARK   42  A    between atoms: _97  and  _98
REMARK   43  A    between atoms: _97  and  _100
REMARK   44  A    between atoms: _100  and  _101
REMARK   45  A    between atoms: _101  and  _102
REMARK   46  A    between atoms: _102  and  _103
REMARK   47  A    between atoms: _103  and  _104
REMARK   48  A    between atoms: _108  and  _110
REMARK   49  A    between atoms: _110  and  _111
REMARK   50  A    between atoms: _110  and  _113
REMARK   51  A    between atoms: _113  and  _114
REMARK   52  A    between atoms: _114  and  _115
REMARK   53  A    between atoms: _117  and  _119
REMARK   54  A    between atoms: _119  and  _120
REMARK   55  A    between atoms: _119  and  _122
REMARK   56  A    between atoms: _122  and  _123
REMARK   57  A    between atoms: _126  and  _128
REMARK   58  A    between atoms: _128  and  _129
REMARK   59  A    between atoms: _131  and  _133
REMARK   60  A    between atoms: _133  and  _134
REMARK   61  A    between atoms: _136  and  _138
REMARK   62  A    between atoms: _138  and  _139
REMARK   63  A    between atoms: _138  and  _141
REMARK   64  A    between atoms: _141  and  _142
REMARK   65  A    between atoms: _145  and  _147
REMARK   66  A    between atoms: _147  and  _148
REMARK   67  A    between atoms: _150  and  _152
REMARK   68  A    between atoms: _152  and  _153
REMARK   69  A    between atoms: _155  and  _157
REMARK   70  A    between atoms: _157  and  _158
REMARK   71  A    between atoms: _157  and  _160
REMARK   72  A    between atoms: _160  and  _161
REMARK   73  A    between atoms: _167  and  _169
REMARK   74  A    between atoms: _169  and  _170
REMARK   75  A    between atoms: _169  and  _172
REMARK   76  A    between atoms: _172  and  _173
REMARK   77  A    between atoms: _176  and  _178
REMARK   78  A    between atoms: _178  and  _179
REMARK   79  A    between atoms: _178  and  _181
REMARK   80  A    between atoms: _181  and  _182
REMARK   81  A    between atoms: _185  and  _187
REMARK   82  A    between atoms: _187  and  _188
REMARK   83  A    between atoms: _187  and  _190
REMARK   84  A    between atoms: _190  and  _191
REMARK   85  A    between atoms: _195  and  _196
REMARK   86  A    between atoms: _201  and  _203
REMARK   87  A    between atoms: _203  and  _204
REMARK   88  A    between atoms: _203  and  _206
REMARK   89  A    between atoms: _209  and  _211
REMARK   90  A    between atoms: _211  and  _212
REMARK   91  A    between atoms: _211  and  _214
REMARK   92  A    between atoms: _214  and  _215
REMARK   93  A    between atoms: _220  and  _222
REMARK   94  A    between atoms: _222  and  _223
REMARK   95  A    between atoms: _222  and  _225
REMARK   96  A    between atoms: _225  and  _226
REMARK   97  A    between atoms: _229  and  _231
REMARK   98  A    between atoms: _231  and  _232
REMARK   99  A    between atoms: _231  and  _234
REMARK  100  A    between atoms: _234  and  _235
REMARK  101  A    between atoms: _238  and  _240
REMARK  102  A    between atoms: _240  and  _241
REMARK  103  A    between atoms: _243  and  _245
REMARK  104  A    between atoms: _245  and  _246
REMARK  105  A    between atoms: _245  and  _248
REMARK  106  A    between atoms: _248  and  _249
REMARK  107  A    between atoms: _249  and  _250
REMARK  108  A    between atoms: _250  and  _251
REMARK  109  A    between atoms: _260  and  _262
REMARK  110  A    between atoms: _262  and  _263
REMARK  111  A    between atoms: _262  and  _265
REMARK  112  A    between atoms: _265  and  _266
REMARK  113  A    between atoms: _271  and  _273
REMARK  114  A    between atoms: _273  and  _274
REMARK  115  A    between atoms: _273  and  _276
REMARK  116  A    between atoms: _276  and  _277
REMARK  117  A    between atoms: _277  and  _278
REMARK  118  A    between atoms: _283  and  _285
REMARK  119  A    between atoms: _285  and  _286
REMARK  120  A    between atoms: _285  and  _288
REMARK  121  A    between atoms: _288  and  _289
REMARK  122  A    between atoms: _292  and  _294
REMARK  123  A    between atoms: _294  and  _295
REMARK  124  A    between atoms: _294  and  _297
REMARK  125  A    between atoms: _297  and  _298
REMARK  126  A    between atoms: _301  and  _303
REMARK  127  A    between atoms: _303  and  _304
REMARK  128  A    between atoms: _303  and  _306
REMARK  129  A    between atoms: _306  and  _307
REMARK  130  A    between atoms: _310  and  _312
REMARK  131  A    between atoms: _312  and  _313
REMARK  132  A    between atoms: _312  and  _315
REMARK  133  A    between atoms: _315  and  _316
REMARK  134  A    between atoms: _319  and  _321
REMARK  135  A    between atoms: _321  and  _322
REMARK  136  A    between atoms: _324  and  _326
REMARK  137  A    between atoms: _326  and  _327
REMARK  138  A    between atoms: _330  and  _332
REMARK  139  A    between atoms: _332  and  _333
REMARK  140  A    between atoms: _332  and  _335
REMARK  141  A    between atoms: _335  and  _336
REMARK  142  A    between atoms: _339  and  _341
REMARK  143  A    between atoms: _341  and  _342
REMARK  144  A    between atoms: _341  and  _344
REMARK  145  A    between atoms: _344  and  _345
REMARK  146  A    between atoms: _348  and  _350
REMARK  147  A    between atoms: _350  and  _351
REMARK  148  A    between atoms: _350  and  _353
REMARK  149  A    between atoms: _353  and  _354
REMARK  150  A    between atoms: _357  and  _359
REMARK  151  A    between atoms: _359  and  _360
REMARK  152  A    between atoms: _359  and  _362
REMARK  153  A    between atoms: _365  and  _367
REMARK  154  A    between atoms: _367  and  _368
REMARK  155  A    between atoms: _367  and  _370
REMARK  156  A    between atoms: _370  and  _371
REMARK  157  A    between atoms: _371  and  _372
REMARK  158  A    between atoms: _372  and  _373
REMARK  159  A    between atoms: _373  and  _374
REMARK  160  A    between atoms: _378  and  _380
REMARK  161  A    between atoms: _380  and  _381
REMARK  162  A    between atoms: _380  and  _383
REMARK  163  A    between atoms: _383  and  _384
REMARK  164  A    between atoms: _384  and  _385
REMARK  165  A    between atoms: _387  and  _389
REMARK  166  A    between atoms: _389  and  _390
REMARK  167  A    between atoms: _389  and  _392
REMARK  168  A    between atoms: _392  and  _393
REMARK  169  A    between atoms: _396  and  _398
REMARK  170  A    between atoms: _398  and  _399
REMARK  171  A    between atoms: _401  and  _403
REMARK  172  A    between atoms: _403  and  _404
REMARK  173  A    between atoms: _406  and  _408
REMARK  174  A    between atoms: _408  and  _409
REMARK  175  A    between atoms: _408  and  _411
REMARK  176  A    between atoms: _411  and  _412
REMARK  177  A    between atoms: _415  and  _417
REMARK  178  A    between atoms: _417  and  _418
REMARK  179  A    between atoms: _420  and  _422
REMARK  180  A    between atoms: _422  and  _423
REMARK  181  A    between atoms: _425  and  _427
REMARK  182  A    between atoms: _427  and  _428
REMARK  183  A    between atoms: _427  and  _430
REMARK  184  A    between atoms: _430  and  _431
REMARK  185  A    between atoms: _434  and  _436
REMARK  186  A    between atoms: _436  and  _437
REMARK  187  A    between atoms: _436  and  _439
REMARK  188  A    between atoms: _439  and  _440
REMARK  189  A    between atoms: _444  and  _445
REMARK  190  A    between atoms: _450  and  _452
REMARK  191  A    between atoms: _452  and  _453
REMARK  192  A    between atoms: _452  and  _455
REMARK  193  A    between atoms: _455  and  _456
REMARK  194  A    between atoms: _460  and  _461
REMARK  195  A    between atoms: _466  and  _468
REMARK  196  A    between atoms: _468  and  _469
REMARK  197  A    between atoms: _468  and  _471
REMARK  198  A    between atoms: _474  and  _476
REMARK  199  A    between atoms: _476  and  _477
REMARK  200  A    between atoms: _476  and  _479
REMARK  201  A    between atoms: _479  and  _480
REMARK  202  A    between atoms: _485  and  _487
REMARK  203  A    between atoms: _487  and  _488
REMARK  204  A    between atoms: _487  and  _490
REMARK  205  A    between atoms: _490  and  _491
REMARK  206  A    between atoms: _494  and  _496
REMARK  207  A    between atoms: _496  and  _497
REMARK  208  A    between atoms: _496  and  _499
REMARK  209  A    between atoms: _499  and  _500
REMARK  210  A    between atoms: _503  and  _505
REMARK  211  A    between atoms: _505  and  _506
REMARK  212  A    between atoms: _508  and  _510
REMARK  213  A    between atoms: _510  and  _511
REMARK  214  A    between atoms: _510  and  _513
REMARK  215  A    between atoms: _513  and  _514
REMARK  216  A    between atoms: _514  and  _515
REMARK  217  A    between atoms: _515  and  _516
REMARK  218  A    between atoms: _525  and  _527
REMARK  219  A    between atoms: _527  and  _528
REMARK  220  A    between atoms: _527  and  _530
REMARK  221  A    between atoms: _530  and  _531
REMARK                            x       y       z     vdW  Elec       q    Type
REMARK                         _______ _______ _______ _____ _____    ______ ____
ROOT
ATOM      1  O   HOH     1       0.541 -18.577  18.470  0.00  0.00    +0.000 OA
ENDROOT
TORSDOF 0
REMARK  Name = ../refined-set-2016/4heg/4heg_pocket.pdb
REMARK  221 active torsions:
REMARK  status: ('A' for Active; 'I' for Inactive)
REMARK    1  A    between atoms: _1  and  _3
REMARK    2  A    between atoms: _3  and  _4
REMARK    3  A    between atoms: _3  and  _6
REMARK    4  A    between atoms: _6  and  _7
REMARK    5  A    between atoms: _7  and  _8
REMARK    6  A    between atoms: _13  and  _15
REMARK    7  A    between atoms: _15  and  _16
REMARK    8  A    between atoms: _15  and  _18
REMARK    9  A    between atoms: _18  and  _19
REMARK   10  A    between atoms: _22  and  _24
REMARK   11  A    between atoms: _24  and  _25
REMARK   12  A    between atoms: _24  and  _27
REMARK   13  A    between atoms: _27  and  _28
REMARK   14  A    between atoms: _31  and  _33
REMARK   15  A    between atoms: _33  and  _34
REMARK   16  A    between atoms: _33  and  _36
REMARK   17  A    between atoms: _36  and  _37
REMARK   18  A    between atoms: _40  and  _42
REMARK   19  A    between atoms: _42  and  _43
REMARK   20  A    between atoms: _42  and  _45
REMARK   21  A    between atoms: _45  and  _46
REMARK   22  A    between atoms: _49  and  _51
REMARK   23  A    between atoms: _51  and  _52
REMARK   24  A    between atoms: _54  and  _56
REMARK   25  A    between atoms: _56  and  _57
REMARK   26  A    between atoms: _60  and  _62
REMARK   27  A    between atoms: _62  and  _63
REMARK   28  A    between atoms: _62  and  _65
REMARK   29  A    between atoms: _65  and  _66
REMARK   30  A    between atoms: _69  and  _71
REMARK   31  A    between atoms: _71  and  _72
REMARK   32  A    between atoms: _71  and  _74
REMARK   33  A    between atoms: _74  and  _75
REMARK   34  A    between atoms: _78  and  _80
REMARK   35  A    between atoms: _80  and  _81
REMARK   36  A    between atoms: _80  and  _83
REMARK   37  A    between atoms: _83  and  _84
REMARK   38  A    between atoms: _87  and  _89
REMARK   39  A    between atoms: _89  and  _90
REMARK   40  A    between atoms: _89  and  _92
REMARK   41  A    between atoms: _95  and  _97
REMARK   42  A    between atoms: _97  and  _98
REMARK   43  A    between atoms: _97  and  _100
REMARK   44  A    between atoms: _100  and  _101
REMARK   45  A    between atoms: _101  and  _102
REMARK   46  A    between atoms: _102  and  _103
REMARK   47  A    between atoms: _103  and  _104
REMARK   48  A    between atoms: _108  and  _110
REMARK   49  A    between atoms: _110  and  _111
REMARK   50  A    between atoms: _110  and  _113
REMARK   51  A    between atoms: _113  and  _114
REMARK   52  A    between atoms: _114  and  _115
REMARK   53  A    between atoms: _117  and  _119
REMARK   54  A    between atoms: _119  and  _120
REMARK   55  A    between atoms: _119  and  _122
REMARK   56  A    between atoms: _122  and  _123
REMARK   57  A    between atoms: _126  and  _128
REMARK   58  A    between atoms: _128  and  _129
REMARK   59  A    between atoms: _131  and  _133
REMARK   60  A    between atoms: _133  and  _134
REMARK   61  A    between atoms: _136  and  _138
REMARK   62  A    between atoms: _138  and  _139
REMARK   63  A    between atoms: _138  and  _141
REMARK   64  A    between atoms: _141  and  _142
REMARK   65  A    between atoms: _145  and  _147
REMARK   66  A    between atoms: _147  and  _148
REMARK   67  A    between atoms: _150  and  _152
REMARK   68  A    between atoms: _152  and  _153
REMARK   69  A    between atoms: _155  and  _157
REMARK   70  A    between atoms: _157  and  _158
REMARK   71  A    between atoms: _157  and  _160
REMARK   72  A    between atoms: _160  and  _161
REMARK   73  A    between atoms: _167  and  _169
REMARK   74  A    between atoms: _169  and  _170
REMARK   75  A    between atoms: _169  and  _172
REMARK   76  A    between atoms: _172  and  _173
REMARK   77  A    between atoms: _176  and  _178
REMARK   78  A    between atoms: _178  and  _179
REMARK   79  A    between atoms: _178  and  _181
REMARK   80  A    between atoms: _181  and  _182
REMARK   81  A    between atoms: _185  and  _187
REMARK   82  A    between atoms: _187  and  _188
REMARK   83  A    between atoms: _187  and  _190
REMARK   84  A    between atoms: _190  and  _191
REMARK   85  A    between atoms: _195  and  _196
REMARK   86  A    between atoms: _201  and  _203
REMARK   87  A    between atoms: _203  and  _204
REMARK   88  A    between atoms: _203  and  _206
REMARK   89  A    between atoms: _209  and  _211
REMARK   90  A    between atoms: _211  and  _212
REMARK   91  A    between atoms: _211  and  _214
REMARK   92  A    between atoms: _214  and  _215
REMARK   93  A    between atoms: _220  and  _222
REMARK   94  A    between atoms: _222  and  _223
REMARK   95  A    between atoms: _222  and  _225
REMARK   96  A    between atoms: _225  and  _226
REMARK   97  A    between atoms: _229  and  _231
REMARK   98  A    between atoms: _231  and  _232
REMARK   99  A    between atoms: _231  and  _234
REMARK  100  A    between atoms: _234  and  _235
REMARK  101  A    between atoms: _238  and  _240
REMARK  102  A    between atoms: _240  and  _241
REMARK  103  A    between atoms: _243  and  _245
REMARK  104  A    between atoms: _245  and  _246
REMARK  105  A    between atoms: _245  and  _248
REMARK  106  A    between atoms: _248  and  _249
REMARK  107  A    between atoms: _249  and  _250
REMARK  108  A    between atoms: _250  and  _251
REMARK  109  A    between atoms: _260  and  _262
REMARK  110  A    between atoms: _262  and  _263
REMARK  111  A    between atoms: _262  and  _265
REMARK  112  A    between atoms: _265  and  _266
REMARK  113  A    between atoms: _271  and  _273
REMARK  114  A    between atoms: _273  and  _274
REMARK  115  A    between atoms: _273  and  _276
REMARK  116  A    between atoms: _276  and  _277
REMARK  117  A    between atoms: _277  and  _278
REMARK  118  A    between atoms: _283  and  _285
REMARK  119  A    between atoms: _285  and  _286
REMARK  120  A    between atoms: _285  and  _288
REMARK  121  A    between atoms: _288  and  _289
REMARK  122  A    between atoms: _292  and  _294
REMARK  123  A    between atoms: _294  and  _295
REMARK  124  A    between atoms: _294  and  _297
REMARK  125  A    between atoms: _297  and  _298
REMARK  126  A    between atoms: _301  and  _303
REMARK  127  A    between atoms: _303  and  _304
REMARK  128  A    between atoms: _303  and  _306
REMARK  129  A    between atoms: _306  and  _307
REMARK  130  A    between atoms: _310  and  _312
REMARK  131  A    between atoms: _312  and  _313
REMARK  132  A    between atoms: _312  and  _315
REMARK  133  A    between atoms: _315  and  _316
REMARK  134  A    between atoms: _319  and  _321
REMARK  135  A    between atoms: _321  and  _322
REMARK  136  A    between atoms: _324  and  _326
REMARK  137  A    between atoms: _326  and  _327
REMARK  138  A    between atoms: _330  and  _332
REMARK  139  A    between atoms: _332  and  _333
REMARK  140  A    between atoms: _332  and  _335
REMARK  141  A    between atoms: _335  and  _336
REMARK  142  A    between atoms: _339  and  _341
REMARK  143  A    between atoms: _341  and  _342
REMARK  144  A    between atoms: _341  and  _344
REMARK  145  A    between atoms: _344  and  _345
REMARK  146  A    between atoms: _348  and  _350
REMARK  147  A    between atoms: _350  and  _351
REMARK  148  A    between atoms: _350  and  _353
REMARK  149  A    between atoms: _353  and  _354
REMARK  150  A    between atoms: _357  and  _359
REMARK  151  A    between atoms: _359  and  _360
REMARK  152  A    between atoms: _359  and  _362
REMARK  153  A    between atoms: _365  and  _367
REMARK  154  A    between atoms: _367  and  _368
REMARK  155  A    between atoms: _367  and  _370
REMARK  156  A    between atoms: _370  and  _371
REMARK  157  A    between atoms: _371  and  _372
REMARK  158  A    between atoms: _372  and  _373
REMARK  159  A    between atoms: _373  and  _374
REMARK  160  A    between atoms: _378  and  _380
REMARK  161  A    between atoms: _380  and  _381
REMARK  162  A    between atoms: _380  and  _383
REMARK  163  A    between atoms: _383  and  _384
REMARK  164  A    between atoms: _384  and  _385
REMARK  165  A    between atoms: _387  and  _389
REMARK  166  A    between atoms: _389  and  _390
REMARK  167  A    between atoms: _389  and  _392
REMARK  168  A    between atoms: _392  and  _393
REMARK  169  A    between atoms: _396  and  _398
REMARK  170  A    between atoms: _398  and  _399
REMARK  171  A    between atoms: _401  and  _403
REMARK  172  A    between atoms: _403  and  _404
REMARK  173  A    between atoms: _406  and  _408
REMARK  174  A    between atoms: _408  and  _409
REMARK  175  A    between atoms: _408  and  _411
REMARK  176  A    between atoms: _411  and  _412
REMARK  177  A    between atoms: _415  and  _417
REMARK  178  A    between atoms: _417  and  _418
REMARK  179  A    between atoms: _420  and  _422
REMARK  180  A    between atoms: _422  and  _423
REMARK  181  A    between atoms: _425  and  _427
REMARK  182  A    between atoms: _427  and  _428
REMARK  183  A    between atoms: _427  and  _430
REMARK  184  A    between atoms: _430  and  _431
REMARK  185  A    between atoms: _434  and  _436
REMARK  186  A    between atoms: _436  and  _437
REMARK  187  A    between atoms: _436  and  _439
REMARK  188  A    between atoms: _439  and  _440
REMARK  189  A    between atoms: _444  and  _445
REMARK  190  A    between atoms: _450  and  _452
REMARK  191  A    between atoms: _452  and  _453
REMARK  192  A    between atoms: _452  and  _455
REMARK  193  A    between atoms: _455  and  _456
REMARK  194  A    between atoms: _460  and  _461
REMARK  195  A    between atoms: _466  and  _468
REMARK  196  A    between atoms: _468  and  _469
REMARK  197  A    between atoms: _468  and  _471
REMARK  198  A    between atoms: _474  and  _476
REMARK  199  A    between atoms: _476  and  _477
REMARK  200  A    between atoms: _476  and  _479
REMARK  201  A    between atoms: _479  and  _480
REMARK  202  A    between atoms: _485  and  _487
REMARK  203  A    between atoms: _487  and  _488
REMARK  204  A    between atoms: _487  and  _490
REMARK  205  A    between atoms: _490  and  _491
REMARK  206  A    between atoms: _494  and  _496
REMARK  207  A    between atoms: _496  and  _497
REMARK  208  A    between atoms: _496  and  _499
REMARK  209  A    between atoms: _499  and  _500
REMARK  210  A    between atoms: _503  and  _505
REMARK  211  A    between atoms: _505  and  _506
REMARK  212  A    between atoms: _508  and  _510
REMARK  213  A    between atoms: _510  and  _511
REMARK  214  A    between atoms: _510  and  _513
REMARK  215  A    between atoms: _513  and  _514
REMARK  216  A    between atoms: _514  and  _515
REMARK  217  A    between atoms: _515  and  _516
REMARK  218  A    between atoms: _525  and  _527
REMARK  219  A    between atoms: _527  and  _528
REMARK  220  A    between atoms: _527  and  _530
REMARK  221  A    between atoms: _530  and  _531
REMARK                            x       y       z     vdW  Elec       q    Type
REMARK                         _______ _______ _______ _____ _____    ______ ____
ROOT
ATOM      1  O   HOH     1      -2.032 -17.737  18.101  0.00  0.00    +0.000 OA
ENDROOT
TORSDOF 0
REMARK  Name = ../refined-set-2016/4heg/4heg_pocket.pdb
REMARK  221 active torsions:
REMARK  status: ('A' for Active; 'I' for Inactive)
REMARK    1  A    between atoms: _1  and  _3
REMARK    2  A    between atoms: _3  and  _4
REMARK    3  A    between atoms: _3  and  _6
REMARK    4  A    between atoms: _6  and  _7
REMARK    5  A    between atoms: _7  and  _8
REMARK    6  A    between atoms: _13  and  _15
REMARK    7  A    between atoms: _15  and  _16
REMARK    8  A    between atoms: _15  and  _18
REMARK    9  A    between atoms: _18  and  _19
REMARK   10  A    between atoms: _22  and  _24
REMARK   11  A    between atoms: _24  and  _25
REMARK   12  A    between atoms: _24  and  _27
REMARK   13  A    between atoms: _27  and  _28
REMARK   14  A    between atoms: _31  and  _33
REMARK   15  A    between atoms: _33  and  _34
REMARK   16  A    between atoms: _33  and  _36
REMARK   17  A    between atoms: _36  and  _37
REMARK   18  A    between atoms: _40  and  _42
REMARK   19  A    between atoms: _42  and  _43
REMARK   20  A    between atoms: _42  and  _45
REMARK   21  A    between atoms: _45  and  _46
REMARK   22  A    between atoms: _49  and  _51
REMARK   23  A    between atoms: _51  and  _52
REMARK   24  A    between atoms: _54  and  _56
REMARK   25  A    between atoms: _56  and  _57
REMARK   26  A    between atoms: _60  and  _62
REMARK   27  A    between atoms: _62  and  _63
REMARK   28  A    between atoms: _62  and  _65
REMARK   29  A    between atoms: _65  and  _66
REMARK   30  A    between atoms: _69  and  _71
REMARK   31  A    between atoms: _71  and  _72
REMARK   32  A    between atoms: _71  and  _74
REMARK   33  A    between atoms: _74  and  _75
REMARK   34  A    between atoms: _78  and  _80
REMARK   35  A    between atoms: _80  and  _81
REMARK   36  A    between atoms: _80  and  _83
REMARK   37  A    between atoms: _83  and  _84
REMARK   38  A    between atoms: _87  and  _89
REMARK   39  A    between atoms: _89  and  _90
REMARK   40  A    between atoms: _89  and  _92
REMARK   41  A    between atoms: _95  and  _97
REMARK   42  A    between atoms: _97  and  _98
REMARK   43  A    between atoms: _97  and  _100
REMARK   44  A    between atoms: _100  and  _101
REMARK   45  A    between atoms: _101  and  _102
REMARK   46  A    between atoms: _102  and  _103
REMARK   47  A    between atoms: _103  and  _104
REMARK   48  A    between atoms: _108  and  _110
REMARK   49  A    between atoms: _110  and  _111
REMARK   50  A    between atoms: _110  and  _113
REMARK   51  A    between atoms: _113  and  _114
REMARK   52  A    between atoms: _114  and  _115
REMARK   53  A    between atoms: _117  and  _119
REMARK   54  A    between atoms: _119  and  _120
REMARK   55  A    between atoms: _119  and  _122
REMARK   56  A    between atoms: _122  and  _123
REMARK   57  A    between atoms: _126  and  _128
REMARK   58  A    between atoms: _128  and  _129
REMARK   59  A    between atoms: _131  and  _133
REMARK   60  A    between atoms: _133  and  _134
REMARK   61  A    between atoms: _136  and  _138
REMARK   62  A    between atoms: _138  and  _139
REMARK   63  A    between atoms: _138  and  _141
REMARK   64  A    between atoms: _141  and  _142
REMARK   65  A    between atoms: _145  and  _147
REMARK   66  A    between atoms: _147  and  _148
REMARK   67  A    between atoms: _150  and  _152
REMARK   68  A    between atoms: _152  and  _153
REMARK   69  A    between atoms: _155  and  _157
REMARK   70  A    between atoms: _157  and  _158
REMARK   71  A    between atoms: _157  and  _160
REMARK   72  A    between atoms: _160  and  _161
REMARK   73  A    between atoms: _167  and  _169
REMARK   74  A    between atoms: _169  and  _170
REMARK   75  A    between atoms: _169  and  _172
REMARK   76  A    between atoms: _172  and  _173
REMARK   77  A    between atoms: _176  and  _178
REMARK   78  A    between atoms: _178  and  _179
REMARK   79  A    between atoms: _178  and  _181
REMARK   80  A    between atoms: _181  and  _182
REMARK   81  A    between atoms: _185  and  _187
REMARK   82  A    between atoms: _187  and  _188
REMARK   83  A    between atoms: _187  and  _190
REMARK   84  A    between atoms: _190  and  _191
REMARK   85  A    between atoms: _195  and  _196
REMARK   86  A    between atoms: _201  and  _203
REMARK   87  A    between atoms: _203  and  _204
REMARK   88  A    between atoms: _203  and  _206
REMARK   89  A    between atoms: _209  and  _211
REMARK   90  A    between atoms: _211  and  _212
REMARK   91  A    between atoms: _211  and  _214
REMARK   92  A    between atoms: _214  and  _215
REMARK   93  A    between atoms: _220  and  _222
REMARK   94  A    between atoms: _222  and  _223
REMARK   95  A    between atoms: _222  and  _225
REMARK   96  A    between atoms: _225  and  _226
REMARK   97  A    between atoms: _229  and  _231
REMARK   98  A    between atoms: _231  and  _232
REMARK   99  A    between atoms: _231  and  _234
REMARK  100  A    between atoms: _234  and  _235
REMARK  101  A    between atoms: _238  and  _240
REMARK  102  A    between atoms: _240  and  _241
REMARK  103  A    between atoms: _243  and  _245
REMARK  104  A    between atoms: _245  and  _246
REMARK  105  A    between atoms: _245  and  _248
REMARK  106  A    between atoms: _248  and  _249
REMARK  107  A    between atoms: _249  and  _250
REMARK  108  A    between atoms: _250  and  _251
REMARK  109  A    between atoms: _260  and  _262
REMARK  110  A    between atoms: _262  and  _263
REMARK  111  A    between atoms: _262  and  _265
REMARK  112  A    between atoms: _265  and  _266
REMARK  113  A    between atoms: _271  and  _273
REMARK  114  A    between atoms: _273  and  _274
REMARK  115  A    between atoms: _273  and  _276
REMARK  116  A    between atoms: _276  and  _277
REMARK  117  A    between atoms: _277  and  _278
REMARK  118  A    between atoms: _283  and  _285
REMARK  119  A    between atoms: _285  and  _286
REMARK  120  A    between atoms: _285  and  _288
REMARK  121  A    between atoms: _288  and  _289
REMARK  122  A    between atoms: _292  and  _294
REMARK  123  A    between atoms: _294  and  _295
REMARK  124  A    between atoms: _294  and  _297
REMARK  125  A    between atoms: _297  and  _298
REMARK  126  A    between atoms: _301  and  _303
REMARK  127  A    between atoms: _303  and  _304
REMARK  128  A    between atoms: _303  and  _306
REMARK  129  A    between atoms: _306  and  _307
REMARK  130  A    between atoms: _310  and  _312
REMARK  131  A    between atoms: _312  and  _313
REMARK  132  A    between atoms: _312  and  _315
REMARK  133  A    between atoms: _315  and  _316
REMARK  134  A    between atoms: _319  and  _321
REMARK  135  A    between atoms: _321  and  _322
REMARK  136  A    between atoms: _324  and  _326
REMARK  137  A    between atoms: _326  and  _327
REMARK  138  A    between atoms: _330  and  _332
REMARK  139  A    between atoms: _332  and  _333
REMARK  140  A    between atoms: _332  and  _335
REMARK  141  A    between atoms: _335  and  _336
REMARK  142  A    between atoms: _339  and  _341
REMARK  143  A    between atoms: _341  and  _342
REMARK  144  A    between atoms: _341  and  _344
REMARK  145  A    between atoms: _344  and  _345
REMARK  146  A    between atoms: _348  and  _350
REMARK  147  A    between atoms: _350  and  _351
REMARK  148  A    between atoms: _350  and  _353
REMARK  149  A    between atoms: _353  and  _354
REMARK  150  A    between atoms: _357  and  _359
REMARK  151  A    between atoms: _359  and  _360
REMARK  152  A    between atoms: _359  and  _362
REMARK  153  A    between atoms: _365  and  _367
REMARK  154  A    between atoms: _367  and  _368
REMARK  155  A    between atoms: _367  and  _370
REMARK  156  A    between atoms: _370  and  _371
REMARK  157  A    between atoms: _371  and  _372
REMARK  158  A    between atoms: _372  and  _373
REMARK  159  A    between atoms: _373  and  _374
REMARK  160  A    between atoms: _378  and  _380
REMARK  161  A    between atoms: _380  and  _381
REMARK  162  A    between atoms: _380  and  _383
REMARK  163  A    between atoms: _383  and  _384
REMARK  164  A    between atoms: _384  and  _385
REMARK  165  A    between atoms: _387  and  _389
REMARK  166  A    between atoms: _389  and  _390
REMARK  167  A    between atoms: _389  and  _392
REMARK  168  A    between atoms: _392  and  _393
REMARK  169  A    between atoms: _396  and  _398
REMARK  170  A    between atoms: _398  and  _399
REMARK  171  A    between atoms: _401  and  _403
REMARK  172  A    between atoms: _403  and  _404
REMARK  173  A    between atoms: _406  and  _408
REMARK  174  A    between atoms: _408  and  _409
REMARK  175  A    between atoms: _408  and  _411
REMARK  176  A    between atoms: _411  and  _412
REMARK  177  A    between atoms: _415  and  _417
REMARK  178  A    between atoms: _417  and  _418
REMARK  179  A    between atoms: _420  and  _422
REMARK  180  A    between atoms: _422  and  _423
REMARK  181  A    between atoms: _425  and  _427
REMARK  182  A    between atoms: _427  and  _428
REMARK  183  A    between atoms: _427  and  _430
REMARK  184  A    between atoms: _430  and  _431
REMARK  185  A    between atoms: _434  and  _436
REMARK  186  A    between atoms: _436  and  _437
REMARK  187  A    between atoms: _436  and  _439
REMARK  188  A    between atoms: _439  and  _440
REMARK  189  A    between atoms: _444  and  _445
REMARK  190  A    between atoms: _450  and  _452
REMARK  191  A    between atoms: _452  and  _453
REMARK  192  A    between atoms: _452  and  _455
REMARK  193  A    between atoms: _455  and  _456
REMARK  194  A    between atoms: _460  and  _461
REMARK  195  A    between atoms: _466  and  _468
REMARK  196  A    between atoms: _468  and  _469
REMARK  197  A    between atoms: _468  and  _471
REMARK  198  A    between atoms: _474  and  _476
REMARK  199  A    between atoms: _476  and  _477
REMARK  200  A    between atoms: _476  and  _479
REMARK  201  A    between atoms: _479  and  _480
REMARK  202  A    between atoms: _485  and  _487
REMARK  203  A    between atoms: _487  and  _488
REMARK  204  A    between atoms: _487  and  _490
REMARK  205  A    between atoms: _490  and  _491
REMARK  206  A    between atoms: _494  and  _496
REMARK  207  A    between atoms: _496  and  _497
REMARK  208  A    between atoms: _496  and  _499
REMARK  209  A    between atoms: _499  and  _500
REMARK  210  A    between atoms: _503  and  _505
REMARK  211  A    between atoms: _505  and  _506
REMARK  212  A    between atoms: _508  and  _510
REMARK  213  A    between atoms: _510  and  _511
REMARK  214  A    between atoms: _510  and  _513
REMARK  215  A    between atoms: _513  and  _514
REMARK  216  A    between atoms: _514  and  _515
REMARK  217  A    between atoms: _515  and  _516
REMARK  218  A    between atoms: _525  and  _527
REMARK  219  A    between atoms: _527  and  _528
REMARK  220  A    between atoms: _527  and  _530
REMARK  221  A    between atoms: _530  and  _531
REMARK                            x       y       z     vdW  Elec       q    Type
REMARK                         _______ _______ _______ _____ _____    ______ ____
ROOT
ATOM      1  O   HOH     1      -5.990 -28.046  19.225  0.00  0.00    +0.000 OA
ENDROOT
TORSDOF 0
REMARK  Name = ../refined-set-2016/4heg/4heg_pocket.pdb
REMARK  221 active torsions:
REMARK  status: ('A' for Active; 'I' for Inactive)
REMARK    1  A    between atoms: _1  and  _3
REMARK    2  A    between atoms: _3  and  _4
REMARK    3  A    between atoms: _3  and  _6
REMARK    4  A    between atoms: _6  and  _7
REMARK    5  A    between atoms: _7  and  _8
REMARK    6  A    between atoms: _13  and  _15
REMARK    7  A    between atoms: _15  and  _16
REMARK    8  A    between atoms: _15  and  _18
REMARK    9  A    between atoms: _18  and  _19
REMARK   10  A    between atoms: _22  and  _24
REMARK   11  A    between atoms: _24  and  _25
REMARK   12  A    between atoms: _24  and  _27
REMARK   13  A    between atoms: _27  and  _28
REMARK   14  A    between atoms: _31  and  _33
REMARK   15  A    between atoms: _33  and  _34
REMARK   16  A    between atoms: _33  and  _36
REMARK   17  A    between atoms: _36  and  _37
REMARK   18  A    between atoms: _40  and  _42
REMARK   19  A    between atoms: _42  and  _43
REMARK   20  A    between atoms: _42  and  _45
REMARK   21  A    between atoms: _45  and  _46
REMARK   22  A    between atoms: _49  and  _51
REMARK   23  A    between atoms: _51  and  _52
REMARK   24  A    between atoms: _54  and  _56
REMARK   25  A    between atoms: _56  and  _57
REMARK   26  A    between atoms: _60  and  _62
REMARK   27  A    between atoms: _62  and  _63
REMARK   28  A    between atoms: _62  and  _65
REMARK   29  A    between atoms: _65  and  _66
REMARK   30  A    between atoms: _69  and  _71
REMARK   31  A    between atoms: _71  and  _72
REMARK   32  A    between atoms: _71  and  _74
REMARK   33  A    between atoms: _74  and  _75
REMARK   34  A    between atoms: _78  and  _80
REMARK   35  A    between atoms: _80  and  _81
REMARK   36  A    between atoms: _80  and  _83
REMARK   37  A    between atoms: _83  and  _84
REMARK   38  A    between atoms: _87  and  _89
REMARK   39  A    between atoms: _89  and  _90
REMARK   40  A    between atoms: _89  and  _92
REMARK   41  A    between atoms: _95  and  _97
REMARK   42  A    between atoms: _97  and  _98
REMARK   43  A    between atoms: _97  and  _100
REMARK   44  A    between atoms: _100  and  _101
REMARK   45  A    between atoms: _101  and  _102
REMARK   46  A    between atoms: _102  and  _103
REMARK   47  A    between atoms: _103  and  _104
REMARK   48  A    between atoms: _108  and  _110
REMARK   49  A    between atoms: _110  and  _111
REMARK   50  A    between atoms: _110  and  _113
REMARK   51  A    between atoms: _113  and  _114
REMARK   52  A    between atoms: _114  and  _115
REMARK   53  A    between atoms: _117  and  _119
REMARK   54  A    between atoms: _119  and  _120
REMARK   55  A    between atoms: _119  and  _122
REMARK   56  A    between atoms: _122  and  _123
REMARK   57  A    between atoms: _126  and  _128
REMARK   58  A    between atoms: _128  and  _129
REMARK   59  A    between atoms: _131  and  _133
REMARK   60  A    between atoms: _133  and  _134
REMARK   61  A    between atoms: _136  and  _138
REMARK   62  A    between atoms: _138  and  _139
REMARK   63  A    between atoms: _138  and  _141
REMARK   64  A    between atoms: _141  and  _142
REMARK   65  A    between atoms: _145  and  _147
REMARK   66  A    between atoms: _147  and  _148
REMARK   67  A    between atoms: _150  and  _152
REMARK   68  A    between atoms: _152  and  _153
REMARK   69  A    between atoms: _155  and  _157
REMARK   70  A    between atoms: _157  and  _158
REMARK   71  A    between atoms: _157  and  _160
REMARK   72  A    between atoms: _160  and  _161
REMARK   73  A    between atoms: _167  and  _169
REMARK   74  A    between atoms: _169  and  _170
REMARK   75  A    between atoms: _169  and  _172
REMARK   76  A    between atoms: _172  and  _173
REMARK   77  A    between atoms: _176  and  _178
REMARK   78  A    between atoms: _178  and  _179
REMARK   79  A    between atoms: _178  and  _181
REMARK   80  A    between atoms: _181  and  _182
REMARK   81  A    between atoms: _185  and  _187
REMARK   82  A    between atoms: _187  and  _188
REMARK   83  A    between atoms: _187  and  _190
REMARK   84  A    between atoms: _190  and  _191
REMARK   85  A    between atoms: _195  and  _196
REMARK   86  A    between atoms: _201  and  _203
REMARK   87  A    between atoms: _203  and  _204
REMARK   88  A    between atoms: _203  and  _206
REMARK   89  A    between atoms: _209  and  _211
REMARK   90  A    between atoms: _211  and  _212
REMARK   91  A    between atoms: _211  and  _214
REMARK   92  A    between atoms: _214  and  _215
REMARK   93  A    between atoms: _220  and  _222
REMARK   94  A    between atoms: _222  and  _223
REMARK   95  A    between atoms: _222  and  _225
REMARK   96  A    between atoms: _225  and  _226
REMARK   97  A    between atoms: _229  and  _231
REMARK   98  A    between atoms: _231  and  _232
REMARK   99  A    between atoms: _231  and  _234
REMARK  100  A    between atoms: _234  and  _235
REMARK  101  A    between atoms: _238  and  _240
REMARK  102  A    between atoms: _240  and  _241
REMARK  103  A    between atoms: _243  and  _245
REMARK  104  A    between atoms: _245  and  _246
REMARK  105  A    between atoms: _245  and  _248
REMARK  106  A    between atoms: _248  and  _249
REMARK  107  A    between atoms: _249  and  _250
REMARK  108  A    between atoms: _250  and  _251
REMARK  109  A    between atoms: _260  and  _262
REMARK  110  A    between atoms: _262  and  _263
REMARK  111  A    between atoms: _262  and  _265
REMARK  112  A    between atoms: _265  and  _266
REMARK  113  A    between atoms: _271  and  _273
REMARK  114  A    between atoms: _273  and  _274
REMARK  115  A    between atoms: _273  and  _276
REMARK  116  A    between atoms: _276  and  _277
REMARK  117  A    between atoms: _277  and  _278
REMARK  118  A    between atoms: _283  and  _285
REMARK  119  A    between atoms: _285  and  _286
REMARK  120  A    between atoms: _285  and  _288
REMARK  121  A    between atoms: _288  and  _289
REMARK  122  A    between atoms: _292  and  _294
REMARK  123  A    between atoms: _294  and  _295
REMARK  124  A    between atoms: _294  and  _297
REMARK  125  A    between atoms: _297  and  _298
REMARK  126  A    between atoms: _301  and  _303
REMARK  127  A    between atoms: _303  and  _304
REMARK  128  A    between atoms: _303  and  _306
REMARK  129  A    between atoms: _306  and  _307
REMARK  130  A    between atoms: _310  and  _312
REMARK  131  A    between atoms: _312  and  _313
REMARK  132  A    between atoms: _312  and  _315
REMARK  133  A    between atoms: _315  and  _316
REMARK  134  A    between atoms: _319  and  _321
REMARK  135  A    between atoms: _321  and  _322
REMARK  136  A    between atoms: _324  and  _326
REMARK  137  A    between atoms: _326  and  _327
REMARK  138  A    between atoms: _330  and  _332
REMARK  139  A    between atoms: _332  and  _333
REMARK  140  A    between atoms: _332  and  _335
REMARK  141  A    between atoms: _335  and  _336
REMARK  142  A    between atoms: _339  and  _341
REMARK  143  A    between atoms: _341  and  _342
REMARK  144  A    between atoms: _341  and  _344
REMARK  145  A    between atoms: _344  and  _345
REMARK  146  A    between atoms: _348  and  _350
REMARK  147  A    between atoms: _350  and  _351
REMARK  148  A    between atoms: _350  and  _353
REMARK  149  A    between atoms: _353  and  _354
REMARK  150  A    between atoms: _357  and  _359
REMARK  151  A    between atoms: _359  and  _360
REMARK  152  A    between atoms: _359  and  _362
REMARK  153  A    between atoms: _365  and  _367
REMARK  154  A    between atoms: _367  and  _368
REMARK  155  A    between atoms: _367  and  _370
REMARK  156  A    between atoms: _370  and  _371
REMARK  157  A    between atoms: _371  and  _372
REMARK  158  A    between atoms: _372  and  _373
REMARK  159  A    between atoms: _373  and  _374
REMARK  160  A    between atoms: _378  and  _380
REMARK  161  A    between atoms: _380  and  _381
REMARK  162  A    between atoms: _380  and  _383
REMARK  163  A    between atoms: _383  and  _384
REMARK  164  A    between atoms: _384  and  _385
REMARK  165  A    between atoms: _387  and  _389
REMARK  166  A    between atoms: _389  and  _390
REMARK  167  A    between atoms: _389  and  _392
REMARK  168  A    between atoms: _392  and  _393
REMARK  169  A    between atoms: _396  and  _398
REMARK  170  A    between atoms: _398  and  _399
REMARK  171  A    between atoms: _401  and  _403
REMARK  172  A    between atoms: _403  and  _404
REMARK  173  A    between atoms: _406  and  _408
REMARK  174  A    between atoms: _408  and  _409
REMARK  175  A    between atoms: _408  and  _411
REMARK  176  A    between atoms: _411  and  _412
REMARK  177  A    between atoms: _415  and  _417
REMARK  178  A    between atoms: _417  and  _418
REMARK  179  A    between atoms: _420  and  _422
REMARK  180  A    between atoms: _422  and  _423
REMARK  181  A    between atoms: _425  and  _427
REMARK  182  A    between atoms: _427  and  _428
REMARK  183  A    between atoms: _427  and  _430
REMARK  184  A    between atoms: _430  and  _431
REMARK  185  A    between atoms: _434  and  _436
REMARK  186  A    between atoms: _436  and  _437
REMARK  187  A    between atoms: _436  and  _439
REMARK  188  A    between atoms: _439  and  _440
REMARK  189  A    between atoms: _444  and  _445
REMARK  190  A    between atoms: _450  and  _452
REMARK  191  A    between atoms: _452  and  _453
REMARK  192  A    between atoms: _452  and  _455
REMARK  193  A    between atoms: _455  and  _456
REMARK  194  A    between atoms: _460  and  _461
REMARK  195  A    between atoms: _466  and  _468
REMARK  196  A    between atoms: _468  and  _469
REMARK  197  A    between atoms: _468  and  _471
REMARK  198  A    between atoms: _474  and  _476
REMARK  199  A    between atoms: _476  and  _477
REMARK  200  A    between atoms: _476  and  _479
REMARK  201  A    between atoms: _479  and  _480
REMARK  202  A    between atoms: _485  and  _487
REMARK  203  A    between atoms: _487  and  _488
REMARK  204  A    between atoms: _487  and  _490
REMARK  205  A    between atoms: _490  and  _491
REMARK  206  A    between atoms: _494  and  _496
REMARK  207  A    between atoms: _496  and  _497
REMARK  208  A    between atoms: _496  and  _499
REMARK  209  A    between atoms: _499  and  _500
REMARK  210  A    between atoms: _503  and  _505
REMARK  211  A    between atoms: _505  and  _506
REMARK  212  A    between atoms: _508  and  _510
REMARK  213  A    between atoms: _510  and  _511
REMARK  214  A    between atoms: _510  and  _513
REMARK  215  A    between atoms: _513  and  _514
REMARK  216  A    between atoms: _514  and  _515
REMARK  217  A    between atoms: _515  and  _516
REMARK  218  A    between atoms: _525  and  _527
REMARK  219  A    between atoms: _527  and  _528
REMARK  220  A    between atoms: _527  and  _530
REMARK  221  A    between atoms: _530  and  _531
REMARK                            x       y       z     vdW  Elec       q    Type
REMARK                         _______ _______ _______ _____ _____    ______ ____
ROOT
ATOM      1  O   HOH     1      -3.703 -12.587  17.396  0.00  0.00    +0.000 OA
ENDROOT
TORSDOF 0
REMARK  Name = ../refined-set-2016/4heg/4heg_pocket.pdb
REMARK  221 active torsions:
REMARK  status: ('A' for Active; 'I' for Inactive)
REMARK    1  A    between atoms: _1  and  _3
REMARK    2  A    between atoms: _3  and  _4
REMARK    3  A    between atoms: _3  and  _6
REMARK    4  A    between atoms: _6  and  _7
REMARK    5  A    between atoms: _7  and  _8
REMARK    6  A    between atoms: _13  and  _15
REMARK    7  A    between atoms: _15  and  _16
REMARK    8  A    between atoms: _15  and  _18
REMARK    9  A    between atoms: _18  and  _19
REMARK   10  A    between atoms: _22  and  _24
REMARK   11  A    between atoms: _24  and  _25
REMARK   12  A    between atoms: _24  and  _27
REMARK   13  A    between atoms: _27  and  _28
REMARK   14  A    between atoms: _31  and  _33
REMARK   15  A    between atoms: _33  and  _34
REMARK   16  A    between atoms: _33  and  _36
REMARK   17  A    between atoms: _36  and  _37
REMARK   18  A    between atoms: _40  and  _42
REMARK   19  A    between atoms: _42  and  _43
REMARK   20  A    between atoms: _42  and  _45
REMARK   21  A    between atoms: _45  and  _46
REMARK   22  A    between atoms: _49  and  _51
REMARK   23  A    between atoms: _51  and  _52
REMARK   24  A    between atoms: _54  and  _56
REMARK   25  A    between atoms: _56  and  _57
REMARK   26  A    between atoms: _60  and  _62
REMARK   27  A    between atoms: _62  and  _63
REMARK   28  A    between atoms: _62  and  _65
REMARK   29  A    between atoms: _65  and  _66
REMARK   30  A    between atoms: _69  and  _71
REMARK   31  A    between atoms: _71  and  _72
REMARK   32  A    between atoms: _71  and  _74
REMARK   33  A    between atoms: _74  and  _75
REMARK   34  A    between atoms: _78  and  _80
REMARK   35  A    between atoms: _80  and  _81
REMARK   36  A    between atoms: _80  and  _83
REMARK   37  A    between atoms: _83  and  _84
REMARK   38  A    between atoms: _87  and  _89
REMARK   39  A    between atoms: _89  and  _90
REMARK   40  A    between atoms: _89  and  _92
REMARK   41  A    between atoms: _95  and  _97
REMARK   42  A    between atoms: _97  and  _98
REMARK   43  A    between atoms: _97  and  _100
REMARK   44  A    between atoms: _100  and  _101
REMARK   45  A    between atoms: _101  and  _102
REMARK   46  A    between atoms: _102  and  _103
REMARK   47  A    between atoms: _103  and  _104
REMARK   48  A    between atoms: _108  and  _110
REMARK   49  A    between atoms: _110  and  _111
REMARK   50  A    between atoms: _110  and  _113
REMARK   51  A    between atoms: _113  and  _114
REMARK   52  A    between atoms: _114  and  _115
REMARK   53  A    between atoms: _117  and  _119
REMARK   54  A    between atoms: _119  and  _120
REMARK   55  A    between atoms: _119  and  _122
REMARK   56  A    between atoms: _122  and  _123
REMARK   57  A    between atoms: _126  and  _128
REMARK   58  A    between atoms: _128  and  _129
REMARK   59  A    between atoms: _131  and  _133
REMARK   60  A    between atoms: _133  and  _134
REMARK   61  A    between atoms: _136  and  _138
REMARK   62  A    between atoms: _138  and  _139
REMARK   63  A    between atoms: _138  and  _141
REMARK   64  A    between atoms: _141  and  _142
REMARK   65  A    between atoms: _145  and  _147
REMARK   66  A    between atoms: _147  and  _148
REMARK   67  A    between atoms: _150  and  _152
REMARK   68  A    between atoms: _152  and  _153
REMARK   69  A    between atoms: _155  and  _157
REMARK   70  A    between atoms: _157  and  _158
REMARK   71  A    between atoms: _157  and  _160
REMARK   72  A    between atoms: _160  and  _161
REMARK   73  A    between atoms: _167  and  _169
REMARK   74  A    between atoms: _169  and  _170
REMARK   75  A    between atoms: _169  and  _172
REMARK   76  A    between atoms: _172  and  _173
REMARK   77  A    between atoms: _176  and  _178
REMARK   78  A    between atoms: _178  and  _179
REMARK   79  A    between atoms: _178  and  _181
REMARK   80  A    between atoms: _181  and  _182
REMARK   81  A    between atoms: _185  and  _187
REMARK   82  A    between atoms: _187  and  _188
REMARK   83  A    between atoms: _187  and  _190
REMARK   84  A    between atoms: _190  and  _191
REMARK   85  A    between atoms: _195  and  _196
REMARK   86  A    between atoms: _201  and  _203
REMARK   87  A    between atoms: _203  and  _204
REMARK   88  A    between atoms: _203  and  _206
REMARK   89  A    between atoms: _209  and  _211
REMARK   90  A    between atoms: _211  and  _212
REMARK   91  A    between atoms: _211  and  _214
REMARK   92  A    between atoms: _214  and  _215
REMARK   93  A    between atoms: _220  and  _222
REMARK   94  A    between atoms: _222  and  _223
REMARK   95  A    between atoms: _222  and  _225
REMARK   96  A    between atoms: _225  and  _226
REMARK   97  A    between atoms: _229  and  _231
REMARK   98  A    between atoms: _231  and  _232
REMARK   99  A    between atoms: _231  and  _234
REMARK  100  A    between atoms: _234  and  _235
REMARK  101  A    between atoms: _238  and  _240
REMARK  102  A    between atoms: _240  and  _241
REMARK  103  A    between atoms: _243  and  _245
REMARK  104  A    between atoms: _245  and  _246
REMARK  105  A    between atoms: _245  and  _248
REMARK  106  A    between atoms: _248  and  _249
REMARK  107  A    between atoms: _249  and  _250
REMARK  108  A    between atoms: _250  and  _251
REMARK  109  A    between atoms: _260  and  _262
REMARK  110  A    between atoms: _262  and  _263
REMARK  111  A    between atoms: _262  and  _265
REMARK  112  A    between atoms: _265  and  _266
REMARK  113  A    between atoms: _271  and  _273
REMARK  114  A    between atoms: _273  and  _274
REMARK  115  A    between atoms: _273  and  _276
REMARK  116  A    between atoms: _276  and  _277
REMARK  117  A    between atoms: _277  and  _278
REMARK  118  A    between atoms: _283  and  _285
REMARK  119  A    between atoms: _285  and  _286
REMARK  120  A    between atoms: _285  and  _288
REMARK  121  A    between atoms: _288  and  _289
REMARK  122  A    between atoms: _292  and  _294
REMARK  123  A    between atoms: _294  and  _295
REMARK  124  A    between atoms: _294  and  _297
REMARK  125  A    between atoms: _297  and  _298
REMARK  126  A    between atoms: _301  and  _303
REMARK  127  A    between atoms: _303  and  _304
REMARK  128  A    between atoms: _303  and  _306
REMARK  129  A    between atoms: _306  and  _307
REMARK  130  A    between atoms: _310  and  _312
REMARK  131  A    between atoms: _312  and  _313
REMARK  132  A    between atoms: _312  and  _315
REMARK  133  A    between atoms: _315  and  _316
REMARK  134  A    between atoms: _319  and  _321
REMARK  135  A    between atoms: _321  and  _322
REMARK  136  A    between atoms: _324  and  _326
REMARK  137  A    between atoms: _326  and  _327
REMARK  138  A    between atoms: _330  and  _332
REMARK  139  A    between atoms: _332  and  _333
REMARK  140  A    between atoms: _332  and  _335
REMARK  141  A    between atoms: _335  and  _336
REMARK  142  A    between atoms: _339  and  _341
REMARK  143  A    between atoms: _341  and  _342
REMARK  144  A    between atoms: _341  and  _344
REMARK  145  A    between atoms: _344  and  _345
REMARK  146  A    between atoms: _348  and  _350
REMARK  147  A    between atoms: _350  and  _351
REMARK  148  A    between atoms: _350  and  _353
REMARK  149  A    between atoms: _353  and  _354
REMARK  150  A    between atoms: _357  and  _359
REMARK  151  A    between atoms: _359  and  _360
REMARK  152  A    between atoms: _359  and  _362
REMARK  153  A    between atoms: _365  and  _367
REMARK  154  A    between atoms: _367  and  _368
REMARK  155  A    between atoms: _367  and  _370
REMARK  156  A    between atoms: _370  and  _371
REMARK  157  A    between atoms: _371  and  _372
REMARK  158  A    between atoms: _372  and  _373
REMARK  159  A    between atoms: _373  and  _374
REMARK  160  A    between atoms: _378  and  _380
REMARK  161  A    between atoms: _380  and  _381
REMARK  162  A    between atoms: _380  and  _383
REMARK  163  A    between atoms: _383  and  _384
REMARK  164  A    between atoms: _384  and  _385
REMARK  165  A    between atoms: _387  and  _389
REMARK  166  A    between atoms: _389  and  _390
REMARK  167  A    between atoms: _389  and  _392
REMARK  168  A    between atoms: _392  and  _393
REMARK  169  A    between atoms: _396  and  _398
REMARK  170  A    between atoms: _398  and  _399
REMARK  171  A    between atoms: _401  and  _403
REMARK  172  A    between atoms: _403  and  _404
REMARK  173  A    between atoms: _406  and  _408
REMARK  174  A    between atoms: _408  and  _409
REMARK  175  A    between atoms: _408  and  _411
REMARK  176  A    between atoms: _411  and  _412
REMARK  177  A    between atoms: _415  and  _417
REMARK  178  A    between atoms: _417  and  _418
REMARK  179  A    between atoms: _420  and  _422
REMARK  180  A    between atoms: _422  and  _423
REMARK  181  A    between atoms: _425  and  _427
REMARK  182  A    between atoms: _427  and  _428
REMARK  183  A    between atoms: _427  and  _430
REMARK  184  A    between atoms: _430  and  _431
REMARK  185  A    between atoms: _434  and  _436
REMARK  186  A    between atoms: _436  and  _437
REMARK  187  A    between atoms: _436  and  _439
REMARK  188  A    between atoms: _439  and  _440
REMARK  189  A    between atoms: _444  and  _445
REMARK  190  A    between atoms: _450  and  _452
REMARK  191  A    between atoms: _452  and  _453
REMARK  192  A    between atoms: _452  and  _455
REMARK  193  A    between atoms: _455  and  _456
REMARK  194  A    between atoms: _460  and  _461
REMARK  195  A    between atoms: _466  and  _468
REMARK  196  A    between atoms: _468  and  _469
REMARK  197  A    between atoms: _468  and  _471
REMARK  198  A    between atoms: _474  and  _476
REMARK  199  A    between atoms: _476  and  _477
REMARK  200  A    between atoms: _476  and  _479
REMARK  201  A    between atoms: _479  and  _480
REMARK  202  A    between atoms: _485  and  _487
REMARK  203  A    between atoms: _487  and  _488
REMARK  204  A    between atoms: _487  and  _490
REMARK  205  A    between atoms: _490  and  _491
REMARK  206  A    between atoms: _494  and  _496
REMARK  207  A    between atoms: _496  and  _497
REMARK  208  A    between atoms: _496  and  _499
REMARK  209  A    between atoms: _499  and  _500
REMARK  210  A    between atoms: _503  and  _505
REMARK  211  A    between atoms: _505  and  _506
REMARK  212  A    between atoms: _508  and  _510
REMARK  213  A    between atoms: _510  and  _511
REMARK  214  A    between atoms: _510  and  _513
REMARK  215  A    between atoms: _513  and  _514
REMARK  216  A    between atoms: _514  and  _515
REMARK  217  A    between atoms: _515  and  _516
REMARK  218  A    between atoms: _525  and  _527
REMARK  219  A    between atoms: _527  and  _528
REMARK  220  A    between atoms: _527  and  _530
REMARK  221  A    between atoms: _530  and  _531
REMARK                            x       y       z     vdW  Elec       q    Type
REMARK                         _______ _______ _______ _____ _____    ______ ____
ROOT
ATOM      1  O   HOH     1      -6.480  -8.875  12.323  0.00  0.00    +0.000 OA
ENDROOT
TORSDOF 0
REMARK  Name = ../refined-set-2016/4heg/4heg_pocket.pdb
REMARK  221 active torsions:
REMARK  status: ('A' for Active; 'I' for Inactive)
REMARK    1  A    between atoms: _1  and  _3
REMARK    2  A    between atoms: _3  and  _4
REMARK    3  A    between atoms: _3  and  _6
REMARK    4  A    between atoms: _6  and  _7
REMARK    5  A    between atoms: _7  and  _8
REMARK    6  A    between atoms: _13  and  _15
REMARK    7  A    between atoms: _15  and  _16
REMARK    8  A    between atoms: _15  and  _18
REMARK    9  A    between atoms: _18  and  _19
REMARK   10  A    between atoms: _22  and  _24
REMARK   11  A    between atoms: _24  and  _25
REMARK   12  A    between atoms: _24  and  _27
REMARK   13  A    between atoms: _27  and  _28
REMARK   14  A    between atoms: _31  and  _33
REMARK   15  A    between atoms: _33  and  _34
REMARK   16  A    between atoms: _33  and  _36
REMARK   17  A    between atoms: _36  and  _37
REMARK   18  A    between atoms: _40  and  _42
REMARK   19  A    between atoms: _42  and  _43
REMARK   20  A    between atoms: _42  and  _45
REMARK   21  A    between atoms: _45  and  _46
REMARK   22  A    between atoms: _49  and  _51
REMARK   23  A    between atoms: _51  and  _52
REMARK   24  A    between atoms: _54  and  _56
REMARK   25  A    between atoms: _56  and  _57
REMARK   26  A    between atoms: _60  and  _62
REMARK   27  A    between atoms: _62  and  _63
REMARK   28  A    between atoms: _62  and  _65
REMARK   29  A    between atoms: _65  and  _66
REMARK   30  A    between atoms: _69  and  _71
REMARK   31  A    between atoms: _71  and  _72
REMARK   32  A    between atoms: _71  and  _74
REMARK   33  A    between atoms: _74  and  _75
REMARK   34  A    between atoms: _78  and  _80
REMARK   35  A    between atoms: _80  and  _81
REMARK   36  A    between atoms: _80  and  _83
REMARK   37  A    between atoms: _83  and  _84
REMARK   38  A    between atoms: _87  and  _89
REMARK   39  A    between atoms: _89  and  _90
REMARK   40  A    between atoms: _89  and  _92
REMARK   41  A    between atoms: _95  and  _97
REMARK   42  A    between atoms: _97  and  _98
REMARK   43  A    between atoms: _97  and  _100
REMARK   44  A    between atoms: _100  and  _101
REMARK   45  A    between atoms: _101  and  _102
REMARK   46  A    between atoms: _102  and  _103
REMARK   47  A    between atoms: _103  and  _104
REMARK   48  A    between atoms: _108  and  _110
REMARK   49  A    between atoms: _110  and  _111
REMARK   50  A    between atoms: _110  and  _113
REMARK   51  A    between atoms: _113  and  _114
REMARK   52  A    between atoms: _114  and  _115
REMARK   53  A    between atoms: _117  and  _119
REMARK   54  A    between atoms: _119  and  _120
REMARK   55  A    between atoms: _119  and  _122
REMARK   56  A    between atoms: _122  and  _123
REMARK   57  A    between atoms: _126  and  _128
REMARK   58  A    between atoms: _128  and  _129
REMARK   59  A    between atoms: _131  and  _133
REMARK   60  A    between atoms: _133  and  _134
REMARK   61  A    between atoms: _136  and  _138
REMARK   62  A    between atoms: _138  and  _139
REMARK   63  A    between atoms: _138  and  _141
REMARK   64  A    between atoms: _141  and  _142
REMARK   65  A    between atoms: _145  and  _147
REMARK   66  A    between atoms: _147  and  _148
REMARK   67  A    between atoms: _150  and  _152
REMARK   68  A    between atoms: _152  and  _153
REMARK   69  A    between atoms: _155  and  _157
REMARK   70  A    between atoms: _157  and  _158
REMARK   71  A    between atoms: _157  and  _160
REMARK   72  A    between atoms: _160  and  _161
REMARK   73  A    between atoms: _167  and  _169
REMARK   74  A    between atoms: _169  and  _170
REMARK   75  A    between atoms: _169  and  _172
REMARK   76  A    between atoms: _172  and  _173
REMARK   77  A    between atoms: _176  and  _178
REMARK   78  A    between atoms: _178  and  _179
REMARK   79  A    between atoms: _178  and  _181
REMARK   80  A    between atoms: _181  and  _182
REMARK   81  A    between atoms: _185  and  _187
REMARK   82  A    between atoms: _187  and  _188
REMARK   83  A    between atoms: _187  and  _190
REMARK   84  A    between atoms: _190  and  _191
REMARK   85  A    between atoms: _195  and  _196
REMARK   86  A    between atoms: _201  and  _203
REMARK   87  A    between atoms: _203  and  _204
REMARK   88  A    between atoms: _203  and  _206
REMARK   89  A    between atoms: _209  and  _211
REMARK   90  A    between atoms: _211  and  _212
REMARK   91  A    between atoms: _211  and  _214
REMARK   92  A    between atoms: _214  and  _215
REMARK   93  A    between atoms: _220  and  _222
REMARK   94  A    between atoms: _222  and  _223
REMARK   95  A    between atoms: _222  and  _225
REMARK   96  A    between atoms: _225  and  _226
REMARK   97  A    between atoms: _229  and  _231
REMARK   98  A    between atoms: _231  and  _232
REMARK   99  A    between atoms: _231  and  _234
REMARK  100  A    between atoms: _234  and  _235
REMARK  101  A    between atoms: _238  and  _240
REMARK  102  A    between atoms: _240  and  _241
REMARK  103  A    between atoms: _243  and  _245
REMARK  104  A    between atoms: _245  and  _246
REMARK  105  A    between atoms: _245  and  _248
REMARK  106  A    between atoms: _248  and  _249
REMARK  107  A    between atoms: _249  and  _250
REMARK  108  A    between atoms: _250  and  _251
REMARK  109  A    between atoms: _260  and  _262
REMARK  110  A    between atoms: _262  and  _263
REMARK  111  A    between atoms: _262  and  _265
REMARK  112  A    between atoms: _265  and  _266
REMARK  113  A    between atoms: _271  and  _273
REMARK  114  A    between atoms: _273  and  _274
REMARK  115  A    between atoms: _273  and  _276
REMARK  116  A    between atoms: _276  and  _277
REMARK  117  A    between atoms: _277  and  _278
REMARK  118  A    between atoms: _283  and  _285
REMARK  119  A    between atoms: _285  and  _286
REMARK  120  A    between atoms: _285  and  _288
REMARK  121  A    between atoms: _288  and  _289
REMARK  122  A    between atoms: _292  and  _294
REMARK  123  A    between atoms: _294  and  _295
REMARK  124  A    between atoms: _294  and  _297
REMARK  125  A    between atoms: _297  and  _298
REMARK  126  A    between atoms: _301  and  _303
REMARK  127  A    between atoms: _303  and  _304
REMARK  128  A    between atoms: _303  and  _306
REMARK  129  A    between atoms: _306  and  _307
REMARK  130  A    between atoms: _310  and  _312
REMARK  131  A    between atoms: _312  and  _313
REMARK  132  A    between atoms: _312  and  _315
REMARK  133  A    between atoms: _315  and  _316
REMARK  134  A    between atoms: _319  and  _321
REMARK  135  A    between atoms: _321  and  _322
REMARK  136  A    between atoms: _324  and  _326
REMARK  137  A    between atoms: _326  and  _327
REMARK  138  A    between atoms: _330  and  _332
REMARK  139  A    between atoms: _332  and  _333
REMARK  140  A    between atoms: _332  and  _335
REMARK  141  A    between atoms: _335  and  _336
REMARK  142  A    between atoms: _339  and  _341
REMARK  143  A    between atoms: _341  and  _342
REMARK  144  A    between atoms: _341  and  _344
REMARK  145  A    between atoms: _344  and  _345
REMARK  146  A    between atoms: _348  and  _350
REMARK  147  A    between atoms: _350  and  _351
REMARK  148  A    between atoms: _350  and  _353
REMARK  149  A    between atoms: _353  and  _354
REMARK  150  A    between atoms: _357  and  _359
REMARK  151  A    between atoms: _359  and  _360
REMARK  152  A    between atoms: _359  and  _362
REMARK  153  A    between atoms: _365  and  _367
REMARK  154  A    between atoms: _367  and  _368
REMARK  155  A    between atoms: _367  and  _370
REMARK  156  A    between atoms: _370  and  _371
REMARK  157  A    between atoms: _371  and  _372
REMARK  158  A    between atoms: _372  and  _373
REMARK  159  A    between atoms: _373  and  _374
REMARK  160  A    between atoms: _378  and  _380
REMARK  161  A    between atoms: _380  and  _381
REMARK  162  A    between atoms: _380  and  _383
REMARK  163  A    between atoms: _383  and  _384
REMARK  164  A    between atoms: _384  and  _385
REMARK  165  A    between atoms: _387  and  _389
REMARK  166  A    between atoms: _389  and  _390
REMARK  167  A    between atoms: _389  and  _392
REMARK  168  A    between atoms: _392  and  _393
REMARK  169  A    between atoms: _396  and  _398
REMARK  170  A    between atoms: _398  and  _399
REMARK  171  A    between atoms: _401  and  _403
REMARK  172  A    between atoms: _403  and  _404
REMARK  173  A    between atoms: _406  and  _408
REMARK  174  A    between atoms: _408  and  _409
REMARK  175  A    between atoms: _408  and  _411
REMARK  176  A    between atoms: _411  and  _412
REMARK  177  A    between atoms: _415  and  _417
REMARK  178  A    between atoms: _417  and  _418
REMARK  179  A    between atoms: _420  and  _422
REMARK  180  A    between atoms: _422  and  _423
REMARK  181  A    between atoms: _425  and  _427
REMARK  182  A    between atoms: _427  and  _428
REMARK  183  A    between atoms: _427  and  _430
REMARK  184  A    between atoms: _430  and  _431
REMARK  185  A    between atoms: _434  and  _436
REMARK  186  A    between atoms: _436  and  _437
REMARK  187  A    between atoms: _436  and  _439
REMARK  188  A    between atoms: _439  and  _440
REMARK  189  A    between atoms: _444  and  _445
REMARK  190  A    between atoms: _450  and  _452
REMARK  191  A    between atoms: _452  and  _453
REMARK  192  A    between atoms: _452  and  _455
REMARK  193  A    between atoms: _455  and  _456
REMARK  194  A    between atoms: _460  and  _461
REMARK  195  A    between atoms: _466  and  _468
REMARK  196  A    between atoms: _468  and  _469
REMARK  197  A    between atoms: _468  and  _471
REMARK  198  A    between atoms: _474  and  _476
REMARK  199  A    between atoms: _476  and  _477
REMARK  200  A    between atoms: _476  and  _479
REMARK  201  A    between atoms: _479  and  _480
REMARK  202  A    between atoms: _485  and  _487
REMARK  203  A    between atoms: _487  and  _488
REMARK  204  A    between atoms: _487  and  _490
REMARK  205  A    between atoms: _490  and  _491
REMARK  206  A    between atoms: _494  and  _496
REMARK  207  A    between atoms: _496  and  _497
REMARK  208  A    between atoms: _496  and  _499
REMARK  209  A    between atoms: _499  and  _500
REMARK  210  A    between atoms: _503  and  _505
REMARK  211  A    between atoms: _505  and  _506
REMARK  212  A    between atoms: _508  and  _510
REMARK  213  A    between atoms: _510  and  _511
REMARK  214  A    between atoms: _510  and  _513
REMARK  215  A    between atoms: _513  and  _514
REMARK  216  A    between atoms: _514  and  _515
REMARK  217  A    between atoms: _515  and  _516
REMARK  218  A    between atoms: _525  and  _527
REMARK  219  A    between atoms: _527  and  _528
REMARK  220  A    between atoms: _527  and  _530
REMARK  221  A    between atoms: _530  and  _531
REMARK                            x       y       z     vdW  Elec       q    Type
REMARK                         _______ _______ _______ _____ _____    ______ ____
ROOT
ATOM      1  O   UNL     1      -3.464 -19.633  19.435  0.00  0.00    +0.000 OA
ATOM      2  O   UNL     1      -4.179 -19.213  20.926  0.00  0.00    +0.000 OA
ENDROOT
TORSDOF 0
REMARK  Name = ../refined-set-2016/4heg/4heg_pocket.pdb
REMARK  221 active torsions:
REMARK  status: ('A' for Active; 'I' for Inactive)
REMARK    1  A    between atoms: _1  and  _3
REMARK    2  A    between atoms: _3  and  _4
REMARK    3  A    between atoms: _3  and  _6
REMARK    4  A    between atoms: _6  and  _7
REMARK    5  A    between atoms: _7  and  _8
REMARK    6  A    between atoms: _13  and  _15
REMARK    7  A    between atoms: _15  and  _16
REMARK    8  A    between atoms: _15  and  _18
REMARK    9  A    between atoms: _18  and  _19
REMARK   10  A    between atoms: _22  and  _24
REMARK   11  A    between atoms: _24  and  _25
REMARK   12  A    between atoms: _24  and  _27
REMARK   13  A    between atoms: _27  and  _28
REMARK   14  A    between atoms: _31  and  _33
REMARK   15  A    between atoms: _33  and  _34
REMARK   16  A    between atoms: _33  and  _36
REMARK   17  A    between atoms: _36  and  _37
REMARK   18  A    between atoms: _40  and  _42
REMARK   19  A    between atoms: _42  and  _43
REMARK   20  A    between atoms: _42  and  _45
REMARK   21  A    between atoms: _45  and  _46
REMARK   22  A    between atoms: _49  and  _51
REMARK   23  A    between atoms: _51  and  _52
REMARK   24  A    between atoms: _54  and  _56
REMARK   25  A    between atoms: _56  and  _57
REMARK   26  A    between atoms: _60  and  _62
REMARK   27  A    between atoms: _62  and  _63
REMARK   28  A    between atoms: _62  and  _65
REMARK   29  A    between atoms: _65  and  _66
REMARK   30  A    between atoms: _69  and  _71
REMARK   31  A    between atoms: _71  and  _72
REMARK   32  A    between atoms: _71  and  _74
REMARK   33  A    between atoms: _74  and  _75
REMARK   34  A    between atoms: _78  and  _80
REMARK   35  A    between atoms: _80  and  _81
REMARK   36  A    between atoms: _80  and  _83
REMARK   37  A    between atoms: _83  and  _84
REMARK   38  A    between atoms: _87  and  _89
REMARK   39  A    between atoms: _89  and  _90
REMARK   40  A    between atoms: _89  and  _92
REMARK   41  A    between atoms: _95  and  _97
REMARK   42  A    between atoms: _97  and  _98
REMARK   43  A    between atoms: _97  and  _100
REMARK   44  A    between atoms: _100  and  _101
REMARK   45  A    between atoms: _101  and  _102
REMARK   46  A    between atoms: _102  and  _103
REMARK   47  A    between atoms: _103  and  _104
REMARK   48  A    between atoms: _108  and  _110
REMARK   49  A    between atoms: _110  and  _111
REMARK   50  A    between atoms: _110  and  _113
REMARK   51  A    between atoms: _113  and  _114
REMARK   52  A    between atoms: _114  and  _115
REMARK   53  A    between atoms: _117  and  _119
REMARK   54  A    between atoms: _119  and  _120
REMARK   55  A    between atoms: _119  and  _122
REMARK   56  A    between atoms: _122  and  _123
REMARK   57  A    between atoms: _126  and  _128
REMARK   58  A    between atoms: _128  and  _129
REMARK   59  A    between atoms: _131  and  _133
REMARK   60  A    between atoms: _133  and  _134
REMARK   61  A    between atoms: _136  and  _138
REMARK   62  A    between atoms: _138  and  _139
REMARK   63  A    between atoms: _138  and  _141
REMARK   64  A    between atoms: _141  and  _142
REMARK   65  A    between atoms: _145  and  _147
REMARK   66  A    between atoms: _147  and  _148
REMARK   67  A    between atoms: _150  and  _152
REMARK   68  A    between atoms: _152  and  _153
REMARK   69  A    between atoms: _155  and  _157
REMARK   70  A    between atoms: _157  and  _158
REMARK   71  A    between atoms: _157  and  _160
REMARK   72  A    between atoms: _160  and  _161
REMARK   73  A    between atoms: _167  and  _169
REMARK   74  A    between atoms: _169  and  _170
REMARK   75  A    between atoms: _169  and  _172
REMARK   76  A    between atoms: _172  and  _173
REMARK   77  A    between atoms: _176  and  _178
REMARK   78  A    between atoms: _178  and  _179
REMARK   79  A    between atoms: _178  and  _181
REMARK   80  A    between atoms: _181  and  _182
REMARK   81  A    between atoms: _185  and  _187
REMARK   82  A    between atoms: _187  and  _188
REMARK   83  A    between atoms: _187  and  _190
REMARK   84  A    between atoms: _190  and  _191
REMARK   85  A    between atoms: _195  and  _196
REMARK   86  A    between atoms: _201  and  _203
REMARK   87  A    between atoms: _203  and  _204
REMARK   88  A    between atoms: _203  and  _206
REMARK   89  A    between atoms: _209  and  _211
REMARK   90  A    between atoms: _211  and  _212
REMARK   91  A    between atoms: _211  and  _214
REMARK   92  A    between atoms: _214  and  _215
REMARK   93  A    between atoms: _220  and  _222
REMARK   94  A    between atoms: _222  and  _223
REMARK   95  A    between atoms: _222  and  _225
REMARK   96  A    between atoms: _225  and  _226
REMARK   97  A    between atoms: _229  and  _231
REMARK   98  A    between atoms: _231  and  _232
REMARK   99  A    between atoms: _231  and  _234
REMARK  100  A    between atoms: _234  and  _235
REMARK  101  A    between atoms: _238  and  _240
REMARK  102  A    between atoms: _240  and  _241
REMARK  103  A    between atoms: _243  and  _245
REMARK  104  A    between atoms: _245  and  _246
REMARK  105  A    between atoms: _245  and  _248
REMARK  106  A    between atoms: _248  and  _249
REMARK  107  A    between atoms: _249  and  _250
REMARK  108  A    between atoms: _250  and  _251
REMARK  109  A    between atoms: _260  and  _262
REMARK  110  A    between atoms: _262  and  _263
REMARK  111  A    between atoms: _262  and  _265
REMARK  112  A    between atoms: _265  and  _266
REMARK  113  A    between atoms: _271  and  _273
REMARK  114  A    between atoms: _273  and  _274
REMARK  115  A    between atoms: _273  and  _276
REMARK  116  A    between atoms: _276  and  _277
REMARK  117  A    between atoms: _277  and  _278
REMARK  118  A    between atoms: _283  and  _285
REMARK  119  A    between atoms: _285  and  _286
REMARK  120  A    between atoms: _285  and  _288
REMARK  121  A    between atoms: _288  and  _289
REMARK  122  A    between atoms: _292  and  _294
REMARK  123  A    between atoms: _294  and  _295
REMARK  124  A    between atoms: _294  and  _297
REMARK  125  A    between atoms: _297  and  _298
REMARK  126  A    between atoms: _301  and  _303
REMARK  127  A    between atoms: _303  and  _304
REMARK  128  A    between atoms: _303  and  _306
REMARK  129  A    between atoms: _306  and  _307
REMARK  130  A    between atoms: _310  and  _312
REMARK  131  A    between atoms: _312  and  _313
REMARK  132  A    between atoms: _312  and  _315
REMARK  133  A    between atoms: _315  and  _316
REMARK  134  A    between atoms: _319  and  _321
REMARK  135  A    between atoms: _321  and  _322
REMARK  136  A    between atoms: _324  and  _326
REMARK  137  A    between atoms: _326  and  _327
REMARK  138  A    between atoms: _330  and  _332
REMARK  139  A    between atoms: _332  and  _333
REMARK  140  A    between atoms: _332  and  _335
REMARK  141  A    between atoms: _335  and  _336
REMARK  142  A    between atoms: _339  and  _341
REMARK  143  A    between atoms: _341  and  _342
REMARK  144  A    between atoms: _341  and  _344
REMARK  145  A    between atoms: _344  and  _345
REMARK  146  A    between atoms: _348  and  _350
REMARK  147  A    between atoms: _350  and  _351
REMARK  148  A    between atoms: _350  and  _353
REMARK  149  A    between atoms: _353  and  _354
REMARK  150  A    between atoms: _357  and  _359
REMARK  151  A    between atoms: _359  and  _360
REMARK  152  A    between atoms: _359  and  _362
REMARK  153  A    between atoms: _365  and  _367
REMARK  154  A    between atoms: _367  and  _368
REMARK  155  A    between atoms: _367  and  _370
REMARK  156  A    between atoms: _370  and  _371
REMARK  157  A    between atoms: _371  and  _372
REMARK  158  A    between atoms: _372  and  _373
REMARK  159  A    between atoms: _373  and  _374
REMARK  160  A    between atoms: _378  and  _380
REMARK  161  A    between atoms: _380  and  _381
REMARK  162  A    between atoms: _380  and  _383
REMARK  163  A    between atoms: _383  and  _384
REMARK  164  A    between atoms: _384  and  _385
REMARK  165  A    between atoms: _387  and  _389
REMARK  166  A    between atoms: _389  and  _390
REMARK  167  A    between atoms: _389  and  _392
REMARK  168  A    between atoms: _392  and  _393
REMARK  169  A    between atoms: _396  and  _398
REMARK  170  A    between atoms: _398  and  _399
REMARK  171  A    between atoms: _401  and  _403
REMARK  172  A    between atoms: _403  and  _404
REMARK  173  A    between atoms: _406  and  _408
REMARK  174  A    between atoms: _408  and  _409
REMARK  175  A    between atoms: _408  and  _411
REMARK  176  A    between atoms: _411  and  _412
REMARK  177  A    between atoms: _415  and  _417
REMARK  178  A    between atoms: _417  and  _418
REMARK  179  A    between atoms: _420  and  _422
REMARK  180  A    between atoms: _422  and  _423
REMARK  181  A    between atoms: _425  and  _427
REMARK  182  A    between atoms: _427  and  _428
REMARK  183  A    between atoms: _427  and  _430
REMARK  184  A    between atoms: _430  and  _431
REMARK  185  A    between atoms: _434  and  _436
REMARK  186  A    between atoms: _436  and  _437
REMARK  187  A    between atoms: _436  and  _439
REMARK  188  A    between atoms: _439  and  _440
REMARK  189  A    between atoms: _444  and  _445
REMARK  190  A    between atoms: _450  and  _452
REMARK  191  A    between atoms: _452  and  _453
REMARK  192  A    between atoms: _452  and  _455
REMARK  193  A    between atoms: _455  and  _456
REMARK  194  A    between atoms: _460  and  _461
REMARK  195  A    between atoms: _466  and  _468
REMARK  196  A    between atoms: _468  and  _469
REMARK  197  A    between atoms: _468  and  _471
REMARK  198  A    between atoms: _474  and  _476
REMARK  199  A    between atoms: _476  and  _477
REMARK  200  A    between atoms: _476  and  _479
REMARK  201  A    between atoms: _479  and  _480
REMARK  202  A    between atoms: _485  and  _487
REMARK  203  A    between atoms: _487  and  _488
REMARK  204  A    between atoms: _487  and  _490
REMARK  205  A    between atoms: _490  and  _491
REMARK  206  A    between atoms: _494  and  _496
REMARK  207  A    between atoms: _496  and  _497
REMARK  208  A    between atoms: _496  and  _499
REMARK  209  A    between atoms: _499  and  _500
REMARK  210  A    between atoms: _503  and  _505
REMARK  211  A    between atoms: _505  and  _506
REMARK  212  A    between atoms: _508  and  _510
REMARK  213  A    between atoms: _510  and  _511
REMARK  214  A    between atoms: _510  and  _513
REMARK  215  A    between atoms: _513  and  _514
REMARK  216  A    between atoms: _514  and  _515
REMARK  217  A    between atoms: _515  and  _516
REMARK  218  A    between atoms: _525  and  _527
REMARK  219  A    between atoms: _527  and  _528
REMARK  220  A    between atoms: _527  and  _530
REMARK  221  A    between atoms: _530  and  _531
REMARK                            x       y       z     vdW  Elec       q    Type
REMARK                         _______ _______ _______ _____ _____    ______ ____
ROOT
ATOM      1  O   HOH     1     -21.974 -20.337   9.021  0.00  0.00    +0.000 OA
ENDROOT
TORSDOF 0
REMARK  Name = ../refined-set-2016/4heg/4heg_pocket.pdb
REMARK  221 active torsions:
REMARK  status: ('A' for Active; 'I' for Inactive)
REMARK    1  A    between atoms: _1  and  _3
REMARK    2  A    between atoms: _3  and  _4
REMARK    3  A    between atoms: _3  and  _6
REMARK    4  A    between atoms: _6  and  _7
REMARK    5  A    between atoms: _7  and  _8
REMARK    6  A    between atoms: _13  and  _15
REMARK    7  A    between atoms: _15  and  _16
REMARK    8  A    between atoms: _15  and  _18
REMARK    9  A    between atoms: _18  and  _19
REMARK   10  A    between atoms: _22  and  _24
REMARK   11  A    between atoms: _24  and  _25
REMARK   12  A    between atoms: _24  and  _27
REMARK   13  A    between atoms: _27  and  _28
REMARK   14  A    between atoms: _31  and  _33
REMARK   15  A    between atoms: _33  and  _34
REMARK   16  A    between atoms: _33  and  _36
REMARK   17  A    between atoms: _36  and  _37
REMARK   18  A    between atoms: _40  and  _42
REMARK   19  A    between atoms: _42  and  _43
REMARK   20  A    between atoms: _42  and  _45
REMARK   21  A    between atoms: _45  and  _46
REMARK   22  A    between atoms: _49  and  _51
REMARK   23  A    between atoms: _51  and  _52
REMARK   24  A    between atoms: _54  and  _56
REMARK   25  A    between atoms: _56  and  _57
REMARK   26  A    between atoms: _60  and  _62
REMARK   27  A    between atoms: _62  and  _63
REMARK   28  A    between atoms: _62  and  _65
REMARK   29  A    between atoms: _65  and  _66
REMARK   30  A    between atoms: _69  and  _71
REMARK   31  A    between atoms: _71  and  _72
REMARK   32  A    between atoms: _71  and  _74
REMARK   33  A    between atoms: _74  and  _75
REMARK   34  A    between atoms: _78  and  _80
REMARK   35  A    between atoms: _80  and  _81
REMARK   36  A    between atoms: _80  and  _83
REMARK   37  A    between atoms: _83  and  _84
REMARK   38  A    between atoms: _87  and  _89
REMARK   39  A    between atoms: _89  and  _90
REMARK   40  A    between atoms: _89  and  _92
REMARK   41  A    between atoms: _95  and  _97
REMARK   42  A    between atoms: _97  and  _98
REMARK   43  A    between atoms: _97  and  _100
REMARK   44  A    between atoms: _100  and  _101
REMARK   45  A    between atoms: _101  and  _102
REMARK   46  A    between atoms: _102  and  _103
REMARK   47  A    between atoms: _103  and  _104
REMARK   48  A    between atoms: _108  and  _110
REMARK   49  A    between atoms: _110  and  _111
REMARK   50  A    between atoms: _110  and  _113
REMARK   51  A    between atoms: _113  and  _114
REMARK   52  A    between atoms: _114  and  _115
REMARK   53  A    between atoms: _117  and  _119
REMARK   54  A    between atoms: _119  and  _120
REMARK   55  A    between atoms: _119  and  _122
REMARK   56  A    between atoms: _122  and  _123
REMARK   57  A    between atoms: _126  and  _128
REMARK   58  A    between atoms: _128  and  _129
REMARK   59  A    between atoms: _131  and  _133
REMARK   60  A    between atoms: _133  and  _134
REMARK   61  A    between atoms: _136  and  _138
REMARK   62  A    between atoms: _138  and  _139
REMARK   63  A    between atoms: _138  and  _141
REMARK   64  A    between atoms: _141  and  _142
REMARK   65  A    between atoms: _145  and  _147
REMARK   66  A    between atoms: _147  and  _148
REMARK   67  A    between atoms: _150  and  _152
REMARK   68  A    between atoms: _152  and  _153
REMARK   69  A    between atoms: _155  and  _157
REMARK   70  A    between atoms: _157  and  _158
REMARK   71  A    between atoms: _157  and  _160
REMARK   72  A    between atoms: _160  and  _161
REMARK   73  A    between atoms: _167  and  _169
REMARK   74  A    between atoms: _169  and  _170
REMARK   75  A    between atoms: _169  and  _172
REMARK   76  A    between atoms: _172  and  _173
REMARK   77  A    between atoms: _176  and  _178
REMARK   78  A    between atoms: _178  and  _179
REMARK   79  A    between atoms: _178  and  _181
REMARK   80  A    between atoms: _181  and  _182
REMARK   81  A    between atoms: _185  and  _187
REMARK   82  A    between atoms: _187  and  _188
REMARK   83  A    between atoms: _187  and  _190
REMARK   84  A    between atoms: _190  and  _191
REMARK   85  A    between atoms: _195  and  _196
REMARK   86  A    between atoms: _201  and  _203
REMARK   87  A    between atoms: _203  and  _204
REMARK   88  A    between atoms: _203  and  _206
REMARK   89  A    between atoms: _209  and  _211
REMARK   90  A    between atoms: _211  and  _212
REMARK   91  A    between atoms: _211  and  _214
REMARK   92  A    between atoms: _214  and  _215
REMARK   93  A    between atoms: _220  and  _222
REMARK   94  A    between atoms: _222  and  _223
REMARK   95  A    between atoms: _222  and  _225
REMARK   96  A    between atoms: _225  and  _226
REMARK   97  A    between atoms: _229  and  _231
REMARK   98  A    between atoms: _231  and  _232
REMARK   99  A    between atoms: _231  and  _234
REMARK  100  A    between atoms: _234  and  _235
REMARK  101  A    between atoms: _238  and  _240
REMARK  102  A    between atoms: _240  and  _241
REMARK  103  A    between atoms: _243  and  _245
REMARK  104  A    between atoms: _245  and  _246
REMARK  105  A    between atoms: _245  and  _248
REMARK  106  A    between atoms: _248  and  _249
REMARK  107  A    between atoms: _249  and  _250
REMARK  108  A    between atoms: _250  and  _251
REMARK  109  A    between atoms: _260  and  _262
REMARK  110  A    between atoms: _262  and  _263
REMARK  111  A    between atoms: _262  and  _265
REMARK  112  A    between atoms: _265  and  _266
REMARK  113  A    between atoms: _271  and  _273
REMARK  114  A    between atoms: _273  and  _274
REMARK  115  A    between atoms: _273  and  _276
REMARK  116  A    between atoms: _276  and  _277
REMARK  117  A    between atoms: _277  and  _278
REMARK  118  A    between atoms: _283  and  _285
REMARK  119  A    between atoms: _285  and  _286
REMARK  120  A    between atoms: _285  and  _288
REMARK  121  A    between atoms: _288  and  _289
REMARK  122  A    between atoms: _292  and  _294
REMARK  123  A    between atoms: _294  and  _295
REMARK  124  A    between atoms: _294  and  _297
REMARK  125  A    between atoms: _297  and  _298
REMARK  126  A    between atoms: _301  and  _303
REMARK  127  A    between atoms: _303  and  _304
REMARK  128  A    between atoms: _303  and  _306
REMARK  129  A    between atoms: _306  and  _307
REMARK  130  A    between atoms: _310  and  _312
REMARK  131  A    between atoms: _312  and  _313
REMARK  132  A    between atoms: _312  and  _315
REMARK  133  A    between atoms: _315  and  _316
REMARK  134  A    between atoms: _319  and  _321
REMARK  135  A    between atoms: _321  and  _322
REMARK  136  A    between atoms: _324  and  _326
REMARK  137  A    between atoms: _326  and  _327
REMARK  138  A    between atoms: _330  and  _332
REMARK  139  A    between atoms: _332  and  _333
REMARK  140  A    between atoms: _332  and  _335
REMARK  141  A    between atoms: _335  and  _336
REMARK  142  A    between atoms: _339  and  _341
REMARK  143  A    between atoms: _341  and  _342
REMARK  144  A    between atoms: _341  and  _344
REMARK  145  A    between atoms: _344  and  _345
REMARK  146  A    between atoms: _348  and  _350
REMARK  147  A    between atoms: _350  and  _351
REMARK  148  A    between atoms: _350  and  _353
REMARK  149  A    between atoms: _353  and  _354
REMARK  150  A    between atoms: _357  and  _359
REMARK  151  A    between atoms: _359  and  _360
REMARK  152  A    between atoms: _359  and  _362
REMARK  153  A    between atoms: _365  and  _367
REMARK  154  A    between atoms: _367  and  _368
REMARK  155  A    between atoms: _367  and  _370
REMARK  156  A    between atoms: _370  and  _371
REMARK  157  A    between atoms: _371  and  _372
REMARK  158  A    between atoms: _372  and  _373
REMARK  159  A    between atoms: _373  and  _374
REMARK  160  A    between atoms: _378  and  _380
REMARK  161  A    between atoms: _380  and  _381
REMARK  162  A    between atoms: _380  and  _383
REMARK  163  A    between atoms: _383  and  _384
REMARK  164  A    between atoms: _384  and  _385
REMARK  165  A    between atoms: _387  and  _389
REMARK  166  A    between atoms: _389  and  _390
REMARK  167  A    between atoms: _389  and  _392
REMARK  168  A    between atoms: _392  and  _393
REMARK  169  A    between atoms: _396  and  _398
REMARK  170  A    between atoms: _398  and  _399
REMARK  171  A    between atoms: _401  and  _403
REMARK  172  A    between atoms: _403  and  _404
REMARK  173  A    between atoms: _406  and  _408
REMARK  174  A    between atoms: _408  and  _409
REMARK  175  A    between atoms: _408  and  _411
REMARK  176  A    between atoms: _411  and  _412
REMARK  177  A    between atoms: _415  and  _417
REMARK  178  A    between atoms: _417  and  _418
REMARK  179  A    between atoms: _420  and  _422
REMARK  180  A    between atoms: _422  and  _423
REMARK  181  A    between atoms: _425  and  _427
REMARK  182  A    between atoms: _427  and  _428
REMARK  183  A    between atoms: _427  and  _430
REMARK  184  A    between atoms: _430  and  _431
REMARK  185  A    between atoms: _434  and  _436
REMARK  186  A    between atoms: _436  and  _437
REMARK  187  A    between atoms: _436  and  _439
REMARK  188  A    between atoms: _439  and  _440
REMARK  189  A    between atoms: _444  and  _445
REMARK  190  A    between atoms: _450  and  _452
REMARK  191  A    between atoms: _452  and  _453
REMARK  192  A    between atoms: _452  and  _455
REMARK  193  A    between atoms: _455  and  _456
REMARK  194  A    between atoms: _460  and  _461
REMARK  195  A    between atoms: _466  and  _468
REMARK  196  A    between atoms: _468  and  _469
REMARK  197  A    between atoms: _468  and  _471
REMARK  198  A    between atoms: _474  and  _476
REMARK  199  A    between atoms: _476  and  _477
REMARK  200  A    between atoms: _476  and  _479
REMARK  201  A    between atoms: _479  and  _480
REMARK  202  A    between atoms: _485  and  _487
REMARK  203  A    between atoms: _487  and  _488
REMARK  204  A    between atoms: _487  and  _490
REMARK  205  A    between atoms: _490  and  _491
REMARK  206  A    between atoms: _494  and  _496
REMARK  207  A    between atoms: _496  and  _497
REMARK  208  A    between atoms: _496  and  _499
REMARK  209  A    between atoms: _499  and  _500
REMARK  210  A    between atoms: _503  and  _505
REMARK  211  A    between atoms: _505  and  _506
REMARK  212  A    between atoms: _508  and  _510
REMARK  213  A    between atoms: _510  and  _511
REMARK  214  A    between atoms: _510  and  _513
REMARK  215  A    between atoms: _513  and  _514
REMARK  216  A    between atoms: _514  and  _515
REMARK  217  A    between atoms: _515  and  _516
REMARK  218  A    between atoms: _525  and  _527
REMARK  219  A    between atoms: _527  and  _528
REMARK  220  A    between atoms: _527  and  _530
REMARK  221  A    between atoms: _530  and  _531
REMARK                            x       y       z     vdW  Elec       q    Type
REMARK                         _______ _______ _______ _____ _____    ______ ____
ROOT
ATOM      1  O   HOH     1       0.085 -16.714  14.563  0.00  0.00    +0.000 OA
ENDROOT
TORSDOF 0
REMARK  Name = ../refined-set-2016/4heg/4heg_pocket.pdb
REMARK  221 active torsions:
REMARK  status: ('A' for Active; 'I' for Inactive)
REMARK    1  A    between atoms: _1  and  _3
REMARK    2  A    between atoms: _3  and  _4
REMARK    3  A    between atoms: _3  and  _6
REMARK    4  A    between atoms: _6  and  _7
REMARK    5  A    between atoms: _7  and  _8
REMARK    6  A    between atoms: _13  and  _15
REMARK    7  A    between atoms: _15  and  _16
REMARK    8  A    between atoms: _15  and  _18
REMARK    9  A    between atoms: _18  and  _19
REMARK   10  A    between atoms: _22  and  _24
REMARK   11  A    between atoms: _24  and  _25
REMARK   12  A    between atoms: _24  and  _27
REMARK   13  A    between atoms: _27  and  _28
REMARK   14  A    between atoms: _31  and  _33
REMARK   15  A    between atoms: _33  and  _34
REMARK   16  A    between atoms: _33  and  _36
REMARK   17  A    between atoms: _36  and  _37
REMARK   18  A    between atoms: _40  and  _42
REMARK   19  A    between atoms: _42  and  _43
REMARK   20  A    between atoms: _42  and  _45
REMARK   21  A    between atoms: _45  and  _46
REMARK   22  A    between atoms: _49  and  _51
REMARK   23  A    between atoms: _51  and  _52
REMARK   24  A    between atoms: _54  and  _56
REMARK   25  A    between atoms: _56  and  _57
REMARK   26  A    between atoms: _60  and  _62
REMARK   27  A    between atoms: _62  and  _63
REMARK   28  A    between atoms: _62  and  _65
REMARK   29  A    between atoms: _65  and  _66
REMARK   30  A    between atoms: _69  and  _71
REMARK   31  A    between atoms: _71  and  _72
REMARK   32  A    between atoms: _71  and  _74
REMARK   33  A    between atoms: _74  and  _75
REMARK   34  A    between atoms: _78  and  _80
REMARK   35  A    between atoms: _80  and  _81
REMARK   36  A    between atoms: _80  and  _83
REMARK   37  A    between atoms: _83  and  _84
REMARK   38  A    between atoms: _87  and  _89
REMARK   39  A    between atoms: _89  and  _90
REMARK   40  A    between atoms: _89  and  _92
REMARK   41  A    between atoms: _95  and  _97
REMARK   42  A    between atoms: _97  and  _98
REMARK   43  A    between atoms: _97  and  _100
REMARK   44  A    between atoms: _100  and  _101
REMARK   45  A    between atoms: _101  and  _102
REMARK   46  A    between atoms: _102  and  _103
REMARK   47  A    between atoms: _103  and  _104
REMARK   48  A    between atoms: _108  and  _110
REMARK   49  A    between atoms: _110  and  _111
REMARK   50  A    between atoms: _110  and  _113
REMARK   51  A    between atoms: _113  and  _114
REMARK   52  A    between atoms: _114  and  _115
REMARK   53  A    between atoms: _117  and  _119
REMARK   54  A    between atoms: _119  and  _120
REMARK   55  A    between atoms: _119  and  _122
REMARK   56  A    between atoms: _122  and  _123
REMARK   57  A    between atoms: _126  and  _128
REMARK   58  A    between atoms: _128  and  _129
REMARK   59  A    between atoms: _131  and  _133
REMARK   60  A    between atoms: _133  and  _134
REMARK   61  A    between atoms: _136  and  _138
REMARK   62  A    between atoms: _138  and  _139
REMARK   63  A    between atoms: _138  and  _141
REMARK   64  A    between atoms: _141  and  _142
REMARK   65  A    between atoms: _145  and  _147
REMARK   66  A    between atoms: _147  and  _148
REMARK   67  A    between atoms: _150  and  _152
REMARK   68  A    between atoms: _152  and  _153
REMARK   69  A    between atoms: _155  and  _157
REMARK   70  A    between atoms: _157  and  _158
REMARK   71  A    between atoms: _157  and  _160
REMARK   72  A    between atoms: _160  and  _161
REMARK   73  A    between atoms: _167  and  _169
REMARK   74  A    between atoms: _169  and  _170
REMARK   75  A    between atoms: _169  and  _172
REMARK   76  A    between atoms: _172  and  _173
REMARK   77  A    between atoms: _176  and  _178
REMARK   78  A    between atoms: _178  and  _179
REMARK   79  A    between atoms: _178  and  _181
REMARK   80  A    between atoms: _181  and  _182
REMARK   81  A    between atoms: _185  and  _187
REMARK   82  A    between atoms: _187  and  _188
REMARK   83  A    between atoms: _187  and  _190
REMARK   84  A    between atoms: _190  and  _191
REMARK   85  A    between atoms: _195  and  _196
REMARK   86  A    between atoms: _201  and  _203
REMARK   87  A    between atoms: _203  and  _204
REMARK   88  A    between atoms: _203  and  _206
REMARK   89  A    between atoms: _209  and  _211
REMARK   90  A    between atoms: _211  and  _212
REMARK   91  A    between atoms: _211  and  _214
REMARK   92  A    between atoms: _214  and  _215
REMARK   93  A    between atoms: _220  and  _222
REMARK   94  A    between atoms: _222  and  _223
REMARK   95  A    between atoms: _222  and  _225
REMARK   96  A    between atoms: _225  and  _226
REMARK   97  A    between atoms: _229  and  _231
REMARK   98  A    between atoms: _231  and  _232
REMARK   99  A    between atoms: _231  and  _234
REMARK  100  A    between atoms: _234  and  _235
REMARK  101  A    between atoms: _238  and  _240
REMARK  102  A    between atoms: _240  and  _241
REMARK  103  A    between atoms: _243  and  _245
REMARK  104  A    between atoms: _245  and  _246
REMARK  105  A    between atoms: _245  and  _248
REMARK  106  A    between atoms: _248  and  _249
REMARK  107  A    between atoms: _249  and  _250
REMARK  108  A    between atoms: _250  and  _251
REMARK  109  A    between atoms: _260  and  _262
REMARK  110  A    between atoms: _262  and  _263
REMARK  111  A    between atoms: _262  and  _265
REMARK  112  A    between atoms: _265  and  _266
REMARK  113  A    between atoms: _271  and  _273
REMARK  114  A    between atoms: _273  and  _274
REMARK  115  A    between atoms: _273  and  _276
REMARK  116  A    between atoms: _276  and  _277
REMARK  117  A    between atoms: _277  and  _278
REMARK  118  A    between atoms: _283  and  _285
REMARK  119  A    between atoms: _285  and  _286
REMARK  120  A    between atoms: _285  and  _288
REMARK  121  A    between atoms: _288  and  _289
REMARK  122  A    between atoms: _292  and  _294
REMARK  123  A    between atoms: _294  and  _295
REMARK  124  A    between atoms: _294  and  _297
REMARK  125  A    between atoms: _297  and  _298
REMARK  126  A    between atoms: _301  and  _303
REMARK  127  A    between atoms: _303  and  _304
REMARK  128  A    between atoms: _303  and  _306
REMARK  129  A    between atoms: _306  and  _307
REMARK  130  A    between atoms: _310  and  _312
REMARK  131  A    between atoms: _312  and  _313
REMARK  132  A    between atoms: _312  and  _315
REMARK  133  A    between atoms: _315  and  _316
REMARK  134  A    between atoms: _319  and  _321
REMARK  135  A    between atoms: _321  and  _322
REMARK  136  A    between atoms: _324  and  _326
REMARK  137  A    between atoms: _326  and  _327
REMARK  138  A    between atoms: _330  and  _332
REMARK  139  A    between atoms: _332  and  _333
REMARK  140  A    between atoms: _332  and  _335
REMARK  141  A    between atoms: _335  and  _336
REMARK  142  A    between atoms: _339  and  _341
REMARK  143  A    between atoms: _341  and  _342
REMARK  144  A    between atoms: _341  and  _344
REMARK  145  A    between atoms: _344  and  _345
REMARK  146  A    between atoms: _348  and  _350
REMARK  147  A    between atoms: _350  and  _351
REMARK  148  A    between atoms: _350  and  _353
REMARK  149  A    between atoms: _353  and  _354
REMARK  150  A    between atoms: _357  and  _359
REMARK  151  A    between atoms: _359  and  _360
REMARK  152  A    between atoms: _359  and  _362
REMARK  153  A    between atoms: _365  and  _367
REMARK  154  A    between atoms: _367  and  _368
REMARK  155  A    between atoms: _367  and  _370
REMARK  156  A    between atoms: _370  and  _371
REMARK  157  A    between atoms: _371  and  _372
REMARK  158  A    between atoms: _372  and  _373
REMARK  159  A    between atoms: _373  and  _374
REMARK  160  A    between atoms: _378  and  _380
REMARK  161  A    between atoms: _380  and  _381
REMARK  162  A    between atoms: _380  and  _383
REMARK  163  A    between atoms: _383  and  _384
REMARK  164  A    between atoms: _384  and  _385
REMARK  165  A    between atoms: _387  and  _389
REMARK  166  A    between atoms: _389  and  _390
REMARK  167  A    between atoms: _389  and  _392
REMARK  168  A    between atoms: _392  and  _393
REMARK  169  A    between atoms: _396  and  _398
REMARK  170  A    between atoms: _398  and  _399
REMARK  171  A    between atoms: _401  and  _403
REMARK  172  A    between atoms: _403  and  _404
REMARK  173  A    between atoms: _406  and  _408
REMARK  174  A    between atoms: _408  and  _409
REMARK  175  A    between atoms: _408  and  _411
REMARK  176  A    between atoms: _411  and  _412
REMARK  177  A    between atoms: _415  and  _417
REMARK  178  A    between atoms: _417  and  _418
REMARK  179  A    between atoms: _420  and  _422
REMARK  180  A    between atoms: _422  and  _423
REMARK  181  A    between atoms: _425  and  _427
REMARK  182  A    between atoms: _427  and  _428
REMARK  183  A    between atoms: _427  and  _430
REMARK  184  A    between atoms: _430  and  _431
REMARK  185  A    between atoms: _434  and  _436
REMARK  186  A    between atoms: _436  and  _437
REMARK  187  A    between atoms: _436  and  _439
REMARK  188  A    between atoms: _439  and  _440
REMARK  189  A    between atoms: _444  and  _445
REMARK  190  A    between atoms: _450  and  _452
REMARK  191  A    between atoms: _452  and  _453
REMARK  192  A    between atoms: _452  and  _455
REMARK  193  A    between atoms: _455  and  _456
REMARK  194  A    between atoms: _460  and  _461
REMARK  195  A    between atoms: _466  and  _468
REMARK  196  A    between atoms: _468  and  _469
REMARK  197  A    between atoms: _468  and  _471
REMARK  198  A    between atoms: _474  and  _476
REMARK  199  A    between atoms: _476  and  _477
REMARK  200  A    between atoms: _476  and  _479
REMARK  201  A    between atoms: _479  and  _480
REMARK  202  A    between atoms: _485  and  _487
REMARK  203  A    between atoms: _487  and  _488
REMARK  204  A    between atoms: _487  and  _490
REMARK  205  A    between atoms: _490  and  _491
REMARK  206  A    between atoms: _494  and  _496
REMARK  207  A    between atoms: _496  and  _497
REMARK  208  A    between atoms: _496  and  _499
REMARK  209  A    between atoms: _499  and  _500
REMARK  210  A    between atoms: _503  and  _505
REMARK  211  A    between atoms: _505  and  _506
REMARK  212  A    between atoms: _508  and  _510
REMARK  213  A    between atoms: _510  and  _511
REMARK  214  A    between atoms: _510  and  _513
REMARK  215  A    between atoms: _513  and  _514
REMARK  216  A    between atoms: _514  and  _515
REMARK  217  A    between atoms: _515  and  _516
REMARK  218  A    between atoms: _525  and  _527
REMARK  219  A    between atoms: _527  and  _528
REMARK  220  A    between atoms: _527  and  _530
REMARK  221  A    between atoms: _530  and  _531
REMARK                            x       y       z     vdW  Elec       q    Type
REMARK                         _______ _______ _______ _____ _____    ______ ____
ROOT
ATOM      1  O   HOH     1      -4.420  -9.628  15.656  0.00  0.00    +0.000 OA
ENDROOT
TORSDOF 0
REMARK  Name = ../refined-set-2016/4heg/4heg_pocket.pdb
REMARK  221 active torsions:
REMARK  status: ('A' for Active; 'I' for Inactive)
REMARK    1  A    between atoms: _1  and  _3
REMARK    2  A    between atoms: _3  and  _4
REMARK    3  A    between atoms: _3  and  _6
REMARK    4  A    between atoms: _6  and  _7
REMARK    5  A    between atoms: _7  and  _8
REMARK    6  A    between atoms: _13  and  _15
REMARK    7  A    between atoms: _15  and  _16
REMARK    8  A    between atoms: _15  and  _18
REMARK    9  A    between atoms: _18  and  _19
REMARK   10  A    between atoms: _22  and  _24
REMARK   11  A    between atoms: _24  and  _25
REMARK   12  A    between atoms: _24  and  _27
REMARK   13  A    between atoms: _27  and  _28
REMARK   14  A    between atoms: _31  and  _33
REMARK   15  A    between atoms: _33  and  _34
REMARK   16  A    between atoms: _33  and  _36
REMARK   17  A    between atoms: _36  and  _37
REMARK   18  A    between atoms: _40  and  _42
REMARK   19  A    between atoms: _42  and  _43
REMARK   20  A    between atoms: _42  and  _45
REMARK   21  A    between atoms: _45  and  _46
REMARK   22  A    between atoms: _49  and  _51
REMARK   23  A    between atoms: _51  and  _52
REMARK   24  A    between atoms: _54  and  _56
REMARK   25  A    between atoms: _56  and  _57
REMARK   26  A    between atoms: _60  and  _62
REMARK   27  A    between atoms: _62  and  _63
REMARK   28  A    between atoms: _62  and  _65
REMARK   29  A    between atoms: _65  and  _66
REMARK   30  A    between atoms: _69  and  _71
REMARK   31  A    between atoms: _71  and  _72
REMARK   32  A    between atoms: _71  and  _74
REMARK   33  A    between atoms: _74  and  _75
REMARK   34  A    between atoms: _78  and  _80
REMARK   35  A    between atoms: _80  and  _81
REMARK   36  A    between atoms: _80  and  _83
REMARK   37  A    between atoms: _83  and  _84
REMARK   38  A    between atoms: _87  and  _89
REMARK   39  A    between atoms: _89  and  _90
REMARK   40  A    between atoms: _89  and  _92
REMARK   41  A    between atoms: _95  and  _97
REMARK   42  A    between atoms: _97  and  _98
REMARK   43  A    between atoms: _97  and  _100
REMARK   44  A    between atoms: _100  and  _101
REMARK   45  A    between atoms: _101  and  _102
REMARK   46  A    between atoms: _102  and  _103
REMARK   47  A    between atoms: _103  and  _104
REMARK   48  A    between atoms: _108  and  _110
REMARK   49  A    between atoms: _110  and  _111
REMARK   50  A    between atoms: _110  and  _113
REMARK   51  A    between atoms: _113  and  _114
REMARK   52  A    between atoms: _114  and  _115
REMARK   53  A    between atoms: _117  and  _119
REMARK   54  A    between atoms: _119  and  _120
REMARK   55  A    between atoms: _119  and  _122
REMARK   56  A    between atoms: _122  and  _123
REMARK   57  A    between atoms: _126  and  _128
REMARK   58  A    between atoms: _128  and  _129
REMARK   59  A    between atoms: _131  and  _133
REMARK   60  A    between atoms: _133  and  _134
REMARK   61  A    between atoms: _136  and  _138
REMARK   62  A    between atoms: _138  and  _139
REMARK   63  A    between atoms: _138  and  _141
REMARK   64  A    between atoms: _141  and  _142
REMARK   65  A    between atoms: _145  and  _147
REMARK   66  A    between atoms: _147  and  _148
REMARK   67  A    between atoms: _150  and  _152
REMARK   68  A    between atoms: _152  and  _153
REMARK   69  A    between atoms: _155  and  _157
REMARK   70  A    between atoms: _157  and  _158
REMARK   71  A    between atoms: _157  and  _160
REMARK   72  A    between atoms: _160  and  _161
REMARK   73  A    between atoms: _167  and  _169
REMARK   74  A    between atoms: _169  and  _170
REMARK   75  A    between atoms: _169  and  _172
REMARK   76  A    between atoms: _172  and  _173
REMARK   77  A    between atoms: _176  and  _178
REMARK   78  A    between atoms: _178  and  _179
REMARK   79  A    between atoms: _178  and  _181
REMARK   80  A    between atoms: _181  and  _182
REMARK   81  A    between atoms: _185  and  _187
REMARK   82  A    between atoms: _187  and  _188
REMARK   83  A    between atoms: _187  and  _190
REMARK   84  A    between atoms: _190  and  _191
REMARK   85  A    between atoms: _195  and  _196
REMARK   86  A    between atoms: _201  and  _203
REMARK   87  A    between atoms: _203  and  _204
REMARK   88  A    between atoms: _203  and  _206
REMARK   89  A    between atoms: _209  and  _211
REMARK   90  A    between atoms: _211  and  _212
REMARK   91  A    between atoms: _211  and  _214
REMARK   92  A    between atoms: _214  and  _215
REMARK   93  A    between atoms: _220  and  _222
REMARK   94  A    between atoms: _222  and  _223
REMARK   95  A    between atoms: _222  and  _225
REMARK   96  A    between atoms: _225  and  _226
REMARK   97  A    between atoms: _229  and  _231
REMARK   98  A    between atoms: _231  and  _232
REMARK   99  A    between atoms: _231  and  _234
REMARK  100  A    between atoms: _234  and  _235
REMARK  101  A    between atoms: _238  and  _240
REMARK  102  A    between atoms: _240  and  _241
REMARK  103  A    between atoms: _243  and  _245
REMARK  104  A    between atoms: _245  and  _246
REMARK  105  A    between atoms: _245  and  _248
REMARK  106  A    between atoms: _248  and  _249
REMARK  107  A    between atoms: _249  and  _250
REMARK  108  A    between atoms: _250  and  _251
REMARK  109  A    between atoms: _260  and  _262
REMARK  110  A    between atoms: _262  and  _263
REMARK  111  A    between atoms: _262  and  _265
REMARK  112  A    between atoms: _265  and  _266
REMARK  113  A    between atoms: _271  and  _273
REMARK  114  A    between atoms: _273  and  _274
REMARK  115  A    between atoms: _273  and  _276
REMARK  116  A    between atoms: _276  and  _277
REMARK  117  A    between atoms: _277  and  _278
REMARK  118  A    between atoms: _283  and  _285
REMARK  119  A    between atoms: _285  and  _286
REMARK  120  A    between atoms: _285  and  _288
REMARK  121  A    between atoms: _288  and  _289
REMARK  122  A    between atoms: _292  and  _294
REMARK  123  A    between atoms: _294  and  _295
REMARK  124  A    between atoms: _294  and  _297
REMARK  125  A    between atoms: _297  and  _298
REMARK  126  A    between atoms: _301  and  _303
REMARK  127  A    between atoms: _303  and  _304
REMARK  128  A    between atoms: _303  and  _306
REMARK  129  A    between atoms: _306  and  _307
REMARK  130  A    between atoms: _310  and  _312
REMARK  131  A    between atoms: _312  and  _313
REMARK  132  A    between atoms: _312  and  _315
REMARK  133  A    between atoms: _315  and  _316
REMARK  134  A    between atoms: _319  and  _321
REMARK  135  A    between atoms: _321  and  _322
REMARK  136  A    between atoms: _324  and  _326
REMARK  137  A    between atoms: _326  and  _327
REMARK  138  A    between atoms: _330  and  _332
REMARK  139  A    between atoms: _332  and  _333
REMARK  140  A    between atoms: _332  and  _335
REMARK  141  A    between atoms: _335  and  _336
REMARK  142  A    between atoms: _339  and  _341
REMARK  143  A    between atoms: _341  and  _342
REMARK  144  A    between atoms: _341  and  _344
REMARK  145  A    between atoms: _344  and  _345
REMARK  146  A    between atoms: _348  and  _350
REMARK  147  A    between atoms: _350  and  _351
REMARK  148  A    between atoms: _350  and  _353
REMARK  149  A    between atoms: _353  and  _354
REMARK  150  A    between atoms: _357  and  _359
REMARK  151  A    between atoms: _359  and  _360
REMARK  152  A    between atoms: _359  and  _362
REMARK  153  A    between atoms: _365  and  _367
REMARK  154  A    between atoms: _367  and  _368
REMARK  155  A    between atoms: _367  and  _370
REMARK  156  A    between atoms: _370  and  _371
REMARK  157  A    between atoms: _371  and  _372
REMARK  158  A    between atoms: _372  and  _373
REMARK  159  A    between atoms: _373  and  _374
REMARK  160  A    between atoms: _378  and  _380
REMARK  161  A    between atoms: _380  and  _381
REMARK  162  A    between atoms: _380  and  _383
REMARK  163  A    between atoms: _383  and  _384
REMARK  164  A    between atoms: _384  and  _385
REMARK  165  A    between atoms: _387  and  _389
REMARK  166  A    between atoms: _389  and  _390
REMARK  167  A    between atoms: _389  and  _392
REMARK  168  A    between atoms: _392  and  _393
REMARK  169  A    between atoms: _396  and  _398
REMARK  170  A    between atoms: _398  and  _399
REMARK  171  A    between atoms: _401  and  _403
REMARK  172  A    between atoms: _403  and  _404
REMARK  173  A    between atoms: _406  and  _408
REMARK  174  A    between atoms: _408  and  _409
REMARK  175  A    between atoms: _408  and  _411
REMARK  176  A    between atoms: _411  and  _412
REMARK  177  A    between atoms: _415  and  _417
REMARK  178  A    between atoms: _417  and  _418
REMARK  179  A    between atoms: _420  and  _422
REMARK  180  A    between atoms: _422  and  _423
REMARK  181  A    between atoms: _425  and  _427
REMARK  182  A    between atoms: _427  and  _428
REMARK  183  A    between atoms: _427  and  _430
REMARK  184  A    between atoms: _430  and  _431
REMARK  185  A    between atoms: _434  and  _436
REMARK  186  A    between atoms: _436  and  _437
REMARK  187  A    between atoms: _436  and  _439
REMARK  188  A    between atoms: _439  and  _440
REMARK  189  A    between atoms: _444  and  _445
REMARK  190  A    between atoms: _450  and  _452
REMARK  191  A    between atoms: _452  and  _453
REMARK  192  A    between atoms: _452  and  _455
REMARK  193  A    between atoms: _455  and  _456
REMARK  194  A    between atoms: _460  and  _461
REMARK  195  A    between atoms: _466  and  _468
REMARK  196  A    between atoms: _468  and  _469
REMARK  197  A    between atoms: _468  and  _471
REMARK  198  A    between atoms: _474  and  _476
REMARK  199  A    between atoms: _476  and  _477
REMARK  200  A    between atoms: _476  and  _479
REMARK  201  A    between atoms: _479  and  _480
REMARK  202  A    between atoms: _485  and  _487
REMARK  203  A    between atoms: _487  and  _488
REMARK  204  A    between atoms: _487  and  _490
REMARK  205  A    between atoms: _490  and  _491
REMARK  206  A    between atoms: _494  and  _496
REMARK  207  A    between atoms: _496  and  _497
REMARK  208  A    between atoms: _496  and  _499
REMARK  209  A    between atoms: _499  and  _500
REMARK  210  A    between atoms: _503  and  _505
REMARK  211  A    between atoms: _505  and  _506
REMARK  212  A    between atoms: _508  and  _510
REMARK  213  A    between atoms: _510  and  _511
REMARK  214  A    between atoms: _510  and  _513
REMARK  215  A    between atoms: _513  and  _514
REMARK  216  A    between atoms: _514  and  _515
REMARK  217  A    between atoms: _515  and  _516
REMARK  218  A    between atoms: _525  and  _527
REMARK  219  A    between atoms: _527  and  _528
REMARK  220  A    between atoms: _527  and  _530
REMARK  221  A    between atoms: _530  and  _531
REMARK                            x       y       z     vdW  Elec       q    Type
REMARK                         _______ _______ _______ _____ _____    ______ ____
ROOT
ATOM      1  O   HOH     1      -4.495 -21.812  18.614  0.00  0.00    +0.000 OA
ENDROOT
TORSDOF 0
REMARK  Name = ../refined-set-2016/4heg/4heg_pocket.pdb
REMARK  221 active torsions:
REMARK  status: ('A' for Active; 'I' for Inactive)
REMARK    1  A    between atoms: _1  and  _3
REMARK    2  A    between atoms: _3  and  _4
REMARK    3  A    between atoms: _3  and  _6
REMARK    4  A    between atoms: _6  and  _7
REMARK    5  A    between atoms: _7  and  _8
REMARK    6  A    between atoms: _13  and  _15
REMARK    7  A    between atoms: _15  and  _16
REMARK    8  A    between atoms: _15  and  _18
REMARK    9  A    between atoms: _18  and  _19
REMARK   10  A    between atoms: _22  and  _24
REMARK   11  A    between atoms: _24  and  _25
REMARK   12  A    between atoms: _24  and  _27
REMARK   13  A    between atoms: _27  and  _28
REMARK   14  A    between atoms: _31  and  _33
REMARK   15  A    between atoms: _33  and  _34
REMARK   16  A    between atoms: _33  and  _36
REMARK   17  A    between atoms: _36  and  _37
REMARK   18  A    between atoms: _40  and  _42
REMARK   19  A    between atoms: _42  and  _43
REMARK   20  A    between atoms: _42  and  _45
REMARK   21  A    between atoms: _45  and  _46
REMARK   22  A    between atoms: _49  and  _51
REMARK   23  A    between atoms: _51  and  _52
REMARK   24  A    between atoms: _54  and  _56
REMARK   25  A    between atoms: _56  and  _57
REMARK   26  A    between atoms: _60  and  _62
REMARK   27  A    between atoms: _62  and  _63
REMARK   28  A    between atoms: _62  and  _65
REMARK   29  A    between atoms: _65  and  _66
REMARK   30  A    between atoms: _69  and  _71
REMARK   31  A    between atoms: _71  and  _72
REMARK   32  A    between atoms: _71  and  _74
REMARK   33  A    between atoms: _74  and  _75
REMARK   34  A    between atoms: _78  and  _80
REMARK   35  A    between atoms: _80  and  _81
REMARK   36  A    between atoms: _80  and  _83
REMARK   37  A    between atoms: _83  and  _84
REMARK   38  A    between atoms: _87  and  _89
REMARK   39  A    between atoms: _89  and  _90
REMARK   40  A    between atoms: _89  and  _92
REMARK   41  A    between atoms: _95  and  _97
REMARK   42  A    between atoms: _97  and  _98
REMARK   43  A    between atoms: _97  and  _100
REMARK   44  A    between atoms: _100  and  _101
REMARK   45  A    between atoms: _101  and  _102
REMARK   46  A    between atoms: _102  and  _103
REMARK   47  A    between atoms: _103  and  _104
REMARK   48  A    between atoms: _108  and  _110
REMARK   49  A    between atoms: _110  and  _111
REMARK   50  A    between atoms: _110  and  _113
REMARK   51  A    between atoms: _113  and  _114
REMARK   52  A    between atoms: _114  and  _115
REMARK   53  A    between atoms: _117  and  _119
REMARK   54  A    between atoms: _119  and  _120
REMARK   55  A    between atoms: _119  and  _122
REMARK   56  A    between atoms: _122  and  _123
REMARK   57  A    between atoms: _126  and  _128
REMARK   58  A    between atoms: _128  and  _129
REMARK   59  A    between atoms: _131  and  _133
REMARK   60  A    between atoms: _133  and  _134
REMARK   61  A    between atoms: _136  and  _138
REMARK   62  A    between atoms: _138  and  _139
REMARK   63  A    between atoms: _138  and  _141
REMARK   64  A    between atoms: _141  and  _142
REMARK   65  A    between atoms: _145  and  _147
REMARK   66  A    between atoms: _147  and  _148
REMARK   67  A    between atoms: _150  and  _152
REMARK   68  A    between atoms: _152  and  _153
REMARK   69  A    between atoms: _155  and  _157
REMARK   70  A    between atoms: _157  and  _158
REMARK   71  A    between atoms: _157  and  _160
REMARK   72  A    between atoms: _160  and  _161
REMARK   73  A    between atoms: _167  and  _169
REMARK   74  A    between atoms: _169  and  _170
REMARK   75  A    between atoms: _169  and  _172
REMARK   76  A    between atoms: _172  and  _173
REMARK   77  A    between atoms: _176  and  _178
REMARK   78  A    between atoms: _178  and  _179
REMARK   79  A    between atoms: _178  and  _181
REMARK   80  A    between atoms: _181  and  _182
REMARK   81  A    between atoms: _185  and  _187
REMARK   82  A    between atoms: _187  and  _188
REMARK   83  A    between atoms: _187  and  _190
REMARK   84  A    between atoms: _190  and  _191
REMARK   85  A    between atoms: _195  and  _196
REMARK   86  A    between atoms: _201  and  _203
REMARK   87  A    between atoms: _203  and  _204
REMARK   88  A    between atoms: _203  and  _206
REMARK   89  A    between atoms: _209  and  _211
REMARK   90  A    between atoms: _211  and  _212
REMARK   91  A    between atoms: _211  and  _214
REMARK   92  A    between atoms: _214  and  _215
REMARK   93  A    between atoms: _220  and  _222
REMARK   94  A    between atoms: _222  and  _223
REMARK   95  A    between atoms: _222  and  _225
REMARK   96  A    between atoms: _225  and  _226
REMARK   97  A    between atoms: _229  and  _231
REMARK   98  A    between atoms: _231  and  _232
REMARK   99  A    between atoms: _231  and  _234
REMARK  100  A    between atoms: _234  and  _235
REMARK  101  A    between atoms: _238  and  _240
REMARK  102  A    between atoms: _240  and  _241
REMARK  103  A    between atoms: _243  and  _245
REMARK  104  A    between atoms: _245  and  _246
REMARK  105  A    between atoms: _245  and  _248
REMARK  106  A    between atoms: _248  and  _249
REMARK  107  A    between atoms: _249  and  _250
REMARK  108  A    between atoms: _250  and  _251
REMARK  109  A    between atoms: _260  and  _262
REMARK  110  A    between atoms: _262  and  _263
REMARK  111  A    between atoms: _262  and  _265
REMARK  112  A    between atoms: _265  and  _266
REMARK  113  A    between atoms: _271  and  _273
REMARK  114  A    between atoms: _273  and  _274
REMARK  115  A    between atoms: _273  and  _276
REMARK  116  A    between atoms: _276  and  _277
REMARK  117  A    between atoms: _277  and  _278
REMARK  118  A    between atoms: _283  and  _285
REMARK  119  A    between atoms: _285  and  _286
REMARK  120  A    between atoms: _285  and  _288
REMARK  121  A    between atoms: _288  and  _289
REMARK  122  A    between atoms: _292  and  _294
REMARK  123  A    between atoms: _294  and  _295
REMARK  124  A    between atoms: _294  and  _297
REMARK  125  A    between atoms: _297  and  _298
REMARK  126  A    between atoms: _301  and  _303
REMARK  127  A    between atoms: _303  and  _304
REMARK  128  A    between atoms: _303  and  _306
REMARK  129  A    between atoms: _306  and  _307
REMARK  130  A    between atoms: _310  and  _312
REMARK  131  A    between atoms: _312  and  _313
REMARK  132  A    between atoms: _312  and  _315
REMARK  133  A    between atoms: _315  and  _316
REMARK  134  A    between atoms: _319  and  _321
REMARK  135  A    between atoms: _321  and  _322
REMARK  136  A    between atoms: _324  and  _326
REMARK  137  A    between atoms: _326  and  _327
REMARK  138  A    between atoms: _330  and  _332
REMARK  139  A    between atoms: _332  and  _333
REMARK  140  A    between atoms: _332  and  _335
REMARK  141  A    between atoms: _335  and  _336
REMARK  142  A    between atoms: _339  and  _341
REMARK  143  A    between atoms: _341  and  _342
REMARK  144  A    between atoms: _341  and  _344
REMARK  145  A    between atoms: _344  and  _345
REMARK  146  A    between atoms: _348  and  _350
REMARK  147  A    between atoms: _350  and  _351
REMARK  148  A    between atoms: _350  and  _353
REMARK  149  A    between atoms: _353  and  _354
REMARK  150  A    between atoms: _357  and  _359
REMARK  151  A    between atoms: _359  and  _360
REMARK  152  A    between atoms: _359  and  _362
REMARK  153  A    between atoms: _365  and  _367
REMARK  154  A    between atoms: _367  and  _368
REMARK  155  A    between atoms: _367  and  _370
REMARK  156  A    between atoms: _370  and  _371
REMARK  157  A    between atoms: _371  and  _372
REMARK  158  A    between atoms: _372  and  _373
REMARK  159  A    between atoms: _373  and  _374
REMARK  160  A    between atoms: _378  and  _380
REMARK  161  A    between atoms: _380  and  _381
REMARK  162  A    between atoms: _380  and  _383
REMARK  163  A    between atoms: _383  and  _384
REMARK  164  A    between atoms: _384  and  _385
REMARK  165  A    between atoms: _387  and  _389
REMARK  166  A    between atoms: _389  and  _390
REMARK  167  A    between atoms: _389  and  _392
REMARK  168  A    between atoms: _392  and  _393
REMARK  169  A    between atoms: _396  and  _398
REMARK  170  A    between atoms: _398  and  _399
REMARK  171  A    between atoms: _401  and  _403
REMARK  172  A    between atoms: _403  and  _404
REMARK  173  A    between atoms: _406  and  _408
REMARK  174  A    between atoms: _408  and  _409
REMARK  175  A    between atoms: _408  and  _411
REMARK  176  A    between atoms: _411  and  _412
REMARK  177  A    between atoms: _415  and  _417
REMARK  178  A    between atoms: _417  and  _418
REMARK  179  A    between atoms: _420  and  _422
REMARK  180  A    between atoms: _422  and  _423
REMARK  181  A    between atoms: _425  and  _427
REMARK  182  A    between atoms: _427  and  _428
REMARK  183  A    between atoms: _427  and  _430
REMARK  184  A    between atoms: _430  and  _431
REMARK  185  A    between atoms: _434  and  _436
REMARK  186  A    between atoms: _436  and  _437
REMARK  187  A    between atoms: _436  and  _439
REMARK  188  A    between atoms: _439  and  _440
REMARK  189  A    between atoms: _444  and  _445
REMARK  190  A    between atoms: _450  and  _452
REMARK  191  A    between atoms: _452  and  _453
REMARK  192  A    between atoms: _452  and  _455
REMARK  193  A    between atoms: _455  and  _456
REMARK  194  A    between atoms: _460  and  _461
REMARK  195  A    between atoms: _466  and  _468
REMARK  196  A    between atoms: _468  and  _469
REMARK  197  A    between atoms: _468  and  _471
REMARK  198  A    between atoms: _474  and  _476
REMARK  199  A    between atoms: _476  and  _477
REMARK  200  A    between atoms: _476  and  _479
REMARK  201  A    between atoms: _479  and  _480
REMARK  202  A    between atoms: _485  and  _487
REMARK  203  A    between atoms: _487  and  _488
REMARK  204  A    between atoms: _487  and  _490
REMARK  205  A    between atoms: _490  and  _491
REMARK  206  A    between atoms: _494  and  _496
REMARK  207  A    between atoms: _496  and  _497
REMARK  208  A    between atoms: _496  and  _499
REMARK  209  A    between atoms: _499  and  _500
REMARK  210  A    between atoms: _503  and  _505
REMARK  211  A    between atoms: _505  and  _506
REMARK  212  A    between atoms: _508  and  _510
REMARK  213  A    between atoms: _510  and  _511
REMARK  214  A    between atoms: _510  and  _513
REMARK  215  A    between atoms: _513  and  _514
REMARK  216  A    between atoms: _514  and  _515
REMARK  217  A    between atoms: _515  and  _516
REMARK  218  A    between atoms: _525  and  _527
REMARK  219  A    between atoms: _527  and  _528
REMARK  220  A    between atoms: _527  and  _530
REMARK  221  A    between atoms: _530  and  _531
REMARK                            x       y       z     vdW  Elec       q    Type
REMARK                         _______ _______ _______ _____ _____    ______ ____
ROOT
ATOM      1  O   HOH     1     -21.756 -19.111  18.329  0.00  0.00    +0.000 OA
ENDROOT
TORSDOF 0
REMARK  Name = ../refined-set-2016/4heg/4heg_pocket.pdb
REMARK  221 active torsions:
REMARK  status: ('A' for Active; 'I' for Inactive)
REMARK    1  A    between atoms: _1  and  _3
REMARK    2  A    between atoms: _3  and  _4
REMARK    3  A    between atoms: _3  and  _6
REMARK    4  A    between atoms: _6  and  _7
REMARK    5  A    between atoms: _7  and  _8
REMARK    6  A    between atoms: _13  and  _15
REMARK    7  A    between atoms: _15  and  _16
REMARK    8  A    between atoms: _15  and  _18
REMARK    9  A    between atoms: _18  and  _19
REMARK   10  A    between atoms: _22  and  _24
REMARK   11  A    between atoms: _24  and  _25
REMARK   12  A    between atoms: _24  and  _27
REMARK   13  A    between atoms: _27  and  _28
REMARK   14  A    between atoms: _31  and  _33
REMARK   15  A    between atoms: _33  and  _34
REMARK   16  A    between atoms: _33  and  _36
REMARK   17  A    between atoms: _36  and  _37
REMARK   18  A    between atoms: _40  and  _42
REMARK   19  A    between atoms: _42  and  _43
REMARK   20  A    between atoms: _42  and  _45
REMARK   21  A    between atoms: _45  and  _46
REMARK   22  A    between atoms: _49  and  _51
REMARK   23  A    between atoms: _51  and  _52
REMARK   24  A    between atoms: _54  and  _56
REMARK   25  A    between atoms: _56  and  _57
REMARK   26  A    between atoms: _60  and  _62
REMARK   27  A    between atoms: _62  and  _63
REMARK   28  A    between atoms: _62  and  _65
REMARK   29  A    between atoms: _65  and  _66
REMARK   30  A    between atoms: _69  and  _71
REMARK   31  A    between atoms: _71  and  _72
REMARK   32  A    between atoms: _71  and  _74
REMARK   33  A    between atoms: _74  and  _75
REMARK   34  A    between atoms: _78  and  _80
REMARK   35  A    between atoms: _80  and  _81
REMARK   36  A    between atoms: _80  and  _83
REMARK   37  A    between atoms: _83  and  _84
REMARK   38  A    between atoms: _87  and  _89
REMARK   39  A    between atoms: _89  and  _90
REMARK   40  A    between atoms: _89  and  _92
REMARK   41  A    between atoms: _95  and  _97
REMARK   42  A    between atoms: _97  and  _98
REMARK   43  A    between atoms: _97  and  _100
REMARK   44  A    between atoms: _100  and  _101
REMARK   45  A    between atoms: _101  and  _102
REMARK   46  A    between atoms: _102  and  _103
REMARK   47  A    between atoms: _103  and  _104
REMARK   48  A    between atoms: _108  and  _110
REMARK   49  A    between atoms: _110  and  _111
REMARK   50  A    between atoms: _110  and  _113
REMARK   51  A    between atoms: _113  and  _114
REMARK   52  A    between atoms: _114  and  _115
REMARK   53  A    between atoms: _117  and  _119
REMARK   54  A    between atoms: _119  and  _120
REMARK   55  A    between atoms: _119  and  _122
REMARK   56  A    between atoms: _122  and  _123
REMARK   57  A    between atoms: _126  and  _128
REMARK   58  A    between atoms: _128  and  _129
REMARK   59  A    between atoms: _131  and  _133
REMARK   60  A    between atoms: _133  and  _134
REMARK   61  A    between atoms: _136  and  _138
REMARK   62  A    between atoms: _138  and  _139
REMARK   63  A    between atoms: _138  and  _141
REMARK   64  A    between atoms: _141  and  _142
REMARK   65  A    between atoms: _145  and  _147
REMARK   66  A    between atoms: _147  and  _148
REMARK   67  A    between atoms: _150  and  _152
REMARK   68  A    between atoms: _152  and  _153
REMARK   69  A    between atoms: _155  and  _157
REMARK   70  A    between atoms: _157  and  _158
REMARK   71  A    between atoms: _157  and  _160
REMARK   72  A    between atoms: _160  and  _161
REMARK   73  A    between atoms: _167  and  _169
REMARK   74  A    between atoms: _169  and  _170
REMARK   75  A    between atoms: _169  and  _172
REMARK   76  A    between atoms: _172  and  _173
REMARK   77  A    between atoms: _176  and  _178
REMARK   78  A    between atoms: _178  and  _179
REMARK   79  A    between atoms: _178  and  _181
REMARK   80  A    between atoms: _181  and  _182
REMARK   81  A    between atoms: _185  and  _187
REMARK   82  A    between atoms: _187  and  _188
REMARK   83  A    between atoms: _187  and  _190
REMARK   84  A    between atoms: _190  and  _191
REMARK   85  A    between atoms: _195  and  _196
REMARK   86  A    between atoms: _201  and  _203
REMARK   87  A    between atoms: _203  and  _204
REMARK   88  A    between atoms: _203  and  _206
REMARK   89  A    between atoms: _209  and  _211
REMARK   90  A    between atoms: _211  and  _212
REMARK   91  A    between atoms: _211  and  _214
REMARK   92  A    between atoms: _214  and  _215
REMARK   93  A    between atoms: _220  and  _222
REMARK   94  A    between atoms: _222  and  _223
REMARK   95  A    between atoms: _222  and  _225
REMARK   96  A    between atoms: _225  and  _226
REMARK   97  A    between atoms: _229  and  _231
REMARK   98  A    between atoms: _231  and  _232
REMARK   99  A    between atoms: _231  and  _234
REMARK  100  A    between atoms: _234  and  _235
REMARK  101  A    between atoms: _238  and  _240
REMARK  102  A    between atoms: _240  and  _241
REMARK  103  A    between atoms: _243  and  _245
REMARK  104  A    between atoms: _245  and  _246
REMARK  105  A    between atoms: _245  and  _248
REMARK  106  A    between atoms: _248  and  _249
REMARK  107  A    between atoms: _249  and  _250
REMARK  108  A    between atoms: _250  and  _251
REMARK  109  A    between atoms: _260  and  _262
REMARK  110  A    between atoms: _262  and  _263
REMARK  111  A    between atoms: _262  and  _265
REMARK  112  A    between atoms: _265  and  _266
REMARK  113  A    between atoms: _271  and  _273
REMARK  114  A    between atoms: _273  and  _274
REMARK  115  A    between atoms: _273  and  _276
REMARK  116  A    between atoms: _276  and  _277
REMARK  117  A    between atoms: _277  and  _278
REMARK  118  A    between atoms: _283  and  _285
REMARK  119  A    between atoms: _285  and  _286
REMARK  120  A    between atoms: _285  and  _288
REMARK  121  A    between atoms: _288  and  _289
REMARK  122  A    between atoms: _292  and  _294
REMARK  123  A    between atoms: _294  and  _295
REMARK  124  A    between atoms: _294  and  _297
REMARK  125  A    between atoms: _297  and  _298
REMARK  126  A    between atoms: _301  and  _303
REMARK  127  A    between atoms: _303  and  _304
REMARK  128  A    between atoms: _303  and  _306
REMARK  129  A    between atoms: _306  and  _307
REMARK  130  A    between atoms: _310  and  _312
REMARK  131  A    between atoms: _312  and  _313
REMARK  132  A    between atoms: _312  and  _315
REMARK  133  A    between atoms: _315  and  _316
REMARK  134  A    between atoms: _319  and  _321
REMARK  135  A    between atoms: _321  and  _322
REMARK  136  A    between atoms: _324  and  _326
REMARK  137  A    between atoms: _326  and  _327
REMARK  138  A    between atoms: _330  and  _332
REMARK  139  A    between atoms: _332  and  _333
REMARK  140  A    between atoms: _332  and  _335
REMARK  141  A    between atoms: _335  and  _336
REMARK  142  A    between atoms: _339  and  _341
REMARK  143  A    between atoms: _341  and  _342
REMARK  144  A    between atoms: _341  and  _344
REMARK  145  A    between atoms: _344  and  _345
REMARK  146  A    between atoms: _348  and  _350
REMARK  147  A    between atoms: _350  and  _351
REMARK  148  A    between atoms: _350  and  _353
REMARK  149  A    between atoms: _353  and  _354
REMARK  150  A    between atoms: _357  and  _359
REMARK  151  A    between atoms: _359  and  _360
REMARK  152  A    between atoms: _359  and  _362
REMARK  153  A    between atoms: _365  and  _367
REMARK  154  A    between atoms: _367  and  _368
REMARK  155  A    between atoms: _367  and  _370
REMARK  156  A    between atoms: _370  and  _371
REMARK  157  A    between atoms: _371  and  _372
REMARK  158  A    between atoms: _372  and  _373
REMARK  159  A    between atoms: _373  and  _374
REMARK  160  A    between atoms: _378  and  _380
REMARK  161  A    between atoms: _380  and  _381
REMARK  162  A    between atoms: _380  and  _383
REMARK  163  A    between atoms: _383  and  _384
REMARK  164  A    between atoms: _384  and  _385
REMARK  165  A    between atoms: _387  and  _389
REMARK  166  A    between atoms: _389  and  _390
REMARK  167  A    between atoms: _389  and  _392
REMARK  168  A    between atoms: _392  and  _393
REMARK  169  A    between atoms: _396  and  _398
REMARK  170  A    between atoms: _398  and  _399
REMARK  171  A    between atoms: _401  and  _403
REMARK  172  A    between atoms: _403  and  _404
REMARK  173  A    between atoms: _406  and  _408
REMARK  174  A    between atoms: _408  and  _409
REMARK  175  A    between atoms: _408  and  _411
REMARK  176  A    between atoms: _411  and  _412
REMARK  177  A    between atoms: _415  and  _417
REMARK  178  A    between atoms: _417  and  _418
REMARK  179  A    between atoms: _420  and  _422
REMARK  180  A    between atoms: _422  and  _423
REMARK  181  A    between atoms: _425  and  _427
REMARK  182  A    between atoms: _427  and  _428
REMARK  183  A    between atoms: _427  and  _430
REMARK  184  A    between atoms: _430  and  _431
REMARK  185  A    between atoms: _434  and  _436
REMARK  186  A    between atoms: _436  and  _437
REMARK  187  A    between atoms: _436  and  _439
REMARK  188  A    between atoms: _439  and  _440
REMARK  189  A    between atoms: _444  and  _445
REMARK  190  A    between atoms: _450  and  _452
REMARK  191  A    between atoms: _452  and  _453
REMARK  192  A    between atoms: _452  and  _455
REMARK  193  A    between atoms: _455  and  _456
REMARK  194  A    between atoms: _460  and  _461
REMARK  195  A    between atoms: _466  and  _468
REMARK  196  A    between atoms: _468  and  _469
REMARK  197  A    between atoms: _468  and  _471
REMARK  198  A    between atoms: _474  and  _476
REMARK  199  A    between atoms: _476  and  _477
REMARK  200  A    between atoms: _476  and  _479
REMARK  201  A    between atoms: _479  and  _480
REMARK  202  A    between atoms: _485  and  _487
REMARK  203  A    between atoms: _487  and  _488
REMARK  204  A    between atoms: _487  and  _490
REMARK  205  A    between atoms: _490  and  _491
REMARK  206  A    between atoms: _494  and  _496
REMARK  207  A    between atoms: _496  and  _497
REMARK  208  A    between atoms: _496  and  _499
REMARK  209  A    between atoms: _499  and  _500
REMARK  210  A    between atoms: _503  and  _505
REMARK  211  A    between atoms: _505  and  _506
REMARK  212  A    between atoms: _508  and  _510
REMARK  213  A    between atoms: _510  and  _511
REMARK  214  A    between atoms: _510  and  _513
REMARK  215  A    between atoms: _513  and  _514
REMARK  216  A    between atoms: _514  and  _515
REMARK  217  A    between atoms: _515  and  _516
REMARK  218  A    between atoms: _525  and  _527
REMARK  219  A    between atoms: _527  and  _528
REMARK  220  A    between atoms: _527  and  _530
REMARK  221  A    between atoms: _530  and  _531
REMARK                            x       y       z     vdW  Elec       q    Type
REMARK                         _______ _______ _______ _____ _____    ______ ____
ROOT
ATOM      1  O   HOH     1     -19.954 -26.894  26.884  0.00  0.00    +0.000 OA
ENDROOT
TORSDOF 0
REMARK  Name = ../refined-set-2016/4heg/4heg_pocket.pdb
REMARK  221 active torsions:
REMARK  status: ('A' for Active; 'I' for Inactive)
REMARK    1  A    between atoms: _1  and  _3
REMARK    2  A    between atoms: _3  and  _4
REMARK    3  A    between atoms: _3  and  _6
REMARK    4  A    between atoms: _6  and  _7
REMARK    5  A    between atoms: _7  and  _8
REMARK    6  A    between atoms: _13  and  _15
REMARK    7  A    between atoms: _15  and  _16
REMARK    8  A    between atoms: _15  and  _18
REMARK    9  A    between atoms: _18  and  _19
REMARK   10  A    between atoms: _22  and  _24
REMARK   11  A    between atoms: _24  and  _25
REMARK   12  A    between atoms: _24  and  _27
REMARK   13  A    between atoms: _27  and  _28
REMARK   14  A    between atoms: _31  and  _33
REMARK   15  A    between atoms: _33  and  _34
REMARK   16  A    between atoms: _33  and  _36
REMARK   17  A    between atoms: _36  and  _37
REMARK   18  A    between atoms: _40  and  _42
REMARK   19  A    between atoms: _42  and  _43
REMARK   20  A    between atoms: _42  and  _45
REMARK   21  A    between atoms: _45  and  _46
REMARK   22  A    between atoms: _49  and  _51
REMARK   23  A    between atoms: _51  and  _52
REMARK   24  A    between atoms: _54  and  _56
REMARK   25  A    between atoms: _56  and  _57
REMARK   26  A    between atoms: _60  and  _62
REMARK   27  A    between atoms: _62  and  _63
REMARK   28  A    between atoms: _62  and  _65
REMARK   29  A    between atoms: _65  and  _66
REMARK   30  A    between atoms: _69  and  _71
REMARK   31  A    between atoms: _71  and  _72
REMARK   32  A    between atoms: _71  and  _74
REMARK   33  A    between atoms: _74  and  _75
REMARK   34  A    between atoms: _78  and  _80
REMARK   35  A    between atoms: _80  and  _81
REMARK   36  A    between atoms: _80  and  _83
REMARK   37  A    between atoms: _83  and  _84
REMARK   38  A    between atoms: _87  and  _89
REMARK   39  A    between atoms: _89  and  _90
REMARK   40  A    between atoms: _89  and  _92
REMARK   41  A    between atoms: _95  and  _97
REMARK   42  A    between atoms: _97  and  _98
REMARK   43  A    between atoms: _97  and  _100
REMARK   44  A    between atoms: _100  and  _101
REMARK   45  A    between atoms: _101  and  _102
REMARK   46  A    between atoms: _102  and  _103
REMARK   47  A    between atoms: _103  and  _104
REMARK   48  A    between atoms: _108  and  _110
REMARK   49  A    between atoms: _110  and  _111
REMARK   50  A    between atoms: _110  and  _113
REMARK   51  A    between atoms: _113  and  _114
REMARK   52  A    between atoms: _114  and  _115
REMARK   53  A    between atoms: _117  and  _119
REMARK   54  A    between atoms: _119  and  _120
REMARK   55  A    between atoms: _119  and  _122
REMARK   56  A    between atoms: _122  and  _123
REMARK   57  A    between atoms: _126  and  _128
REMARK   58  A    between atoms: _128  and  _129
REMARK   59  A    between atoms: _131  and  _133
REMARK   60  A    between atoms: _133  and  _134
REMARK   61  A    between atoms: _136  and  _138
REMARK   62  A    between atoms: _138  and  _139
REMARK   63  A    between atoms: _138  and  _141
REMARK   64  A    between atoms: _141  and  _142
REMARK   65  A    between atoms: _145  and  _147
REMARK   66  A    between atoms: _147  and  _148
REMARK   67  A    between atoms: _150  and  _152
REMARK   68  A    between atoms: _152  and  _153
REMARK   69  A    between atoms: _155  and  _157
REMARK   70  A    between atoms: _157  and  _158
REMARK   71  A    between atoms: _157  and  _160
REMARK   72  A    between atoms: _160  and  _161
REMARK   73  A    between atoms: _167  and  _169
REMARK   74  A    between atoms: _169  and  _170
REMARK   75  A    between atoms: _169  and  _172
REMARK   76  A    between atoms: _172  and  _173
REMARK   77  A    between atoms: _176  and  _178
REMARK   78  A    between atoms: _178  and  _179
REMARK   79  A    between atoms: _178  and  _181
REMARK   80  A    between atoms: _181  and  _182
REMARK   81  A    between atoms: _185  and  _187
REMARK   82  A    between atoms: _187  and  _188
REMARK   83  A    between atoms: _187  and  _190
REMARK   84  A    between atoms: _190  and  _191
REMARK   85  A    between atoms: _195  and  _196
REMARK   86  A    between atoms: _201  and  _203
REMARK   87  A    between atoms: _203  and  _204
REMARK   88  A    between atoms: _203  and  _206
REMARK   89  A    between atoms: _209  and  _211
REMARK   90  A    between atoms: _211  and  _212
REMARK   91  A    between atoms: _211  and  _214
REMARK   92  A    between atoms: _214  and  _215
REMARK   93  A    between atoms: _220  and  _222
REMARK   94  A    between atoms: _222  and  _223
REMARK   95  A    between atoms: _222  and  _225
REMARK   96  A    between atoms: _225  and  _226
REMARK   97  A    between atoms: _229  and  _231
REMARK   98  A    between atoms: _231  and  _232
REMARK   99  A    between atoms: _231  and  _234
REMARK  100  A    between atoms: _234  and  _235
REMARK  101  A    between atoms: _238  and  _240
REMARK  102  A    between atoms: _240  and  _241
REMARK  103  A    between atoms: _243  and  _245
REMARK  104  A    between atoms: _245  and  _246
REMARK  105  A    between atoms: _245  and  _248
REMARK  106  A    between atoms: _248  and  _249
REMARK  107  A    between atoms: _249  and  _250
REMARK  108  A    between atoms: _250  and  _251
REMARK  109  A    between atoms: _260  and  _262
REMARK  110  A    between atoms: _262  and  _263
REMARK  111  A    between atoms: _262  and  _265
REMARK  112  A    between atoms: _265  and  _266
REMARK  113  A    between atoms: _271  and  _273
REMARK  114  A    between atoms: _273  and  _274
REMARK  115  A    between atoms: _273  and  _276
REMARK  116  A    between atoms: _276  and  _277
REMARK  117  A    between atoms: _277  and  _278
REMARK  118  A    between atoms: _283  and  _285
REMARK  119  A    between atoms: _285  and  _286
REMARK  120  A    between atoms: _285  and  _288
REMARK  121  A    between atoms: _288  and  _289
REMARK  122  A    between atoms: _292  and  _294
REMARK  123  A    between atoms: _294  and  _295
REMARK  124  A    between atoms: _294  and  _297
REMARK  125  A    between atoms: _297  and  _298
REMARK  126  A    between atoms: _301  and  _303
REMARK  127  A    between atoms: _303  and  _304
REMARK  128  A    between atoms: _303  and  _306
REMARK  129  A    between atoms: _306  and  _307
REMARK  130  A    between atoms: _310  and  _312
REMARK  131  A    between atoms: _312  and  _313
REMARK  132  A    between atoms: _312  and  _315
REMARK  133  A    between atoms: _315  and  _316
REMARK  134  A    between atoms: _319  and  _321
REMARK  135  A    between atoms: _321  and  _322
REMARK  136  A    between atoms: _324  and  _326
REMARK  137  A    between atoms: _326  and  _327
REMARK  138  A    between atoms: _330  and  _332
REMARK  139  A    between atoms: _332  and  _333
REMARK  140  A    between atoms: _332  and  _335
REMARK  141  A    between atoms: _335  and  _336
REMARK  142  A    between atoms: _339  and  _341
REMARK  143  A    between atoms: _341  and  _342
REMARK  144  A    between atoms: _341  and  _344
REMARK  145  A    between atoms: _344  and  _345
REMARK  146  A    between atoms: _348  and  _350
REMARK  147  A    between atoms: _350  and  _351
REMARK  148  A    between atoms: _350  and  _353
REMARK  149  A    between atoms: _353  and  _354
REMARK  150  A    between atoms: _357  and  _359
REMARK  151  A    between atoms: _359  and  _360
REMARK  152  A    between atoms: _359  and  _362
REMARK  153  A    between atoms: _365  and  _367
REMARK  154  A    between atoms: _367  and  _368
REMARK  155  A    between atoms: _367  and  _370
REMARK  156  A    between atoms: _370  and  _371
REMARK  157  A    between atoms: _371  and  _372
REMARK  158  A    between atoms: _372  and  _373
REMARK  159  A    between atoms: _373  and  _374
REMARK  160  A    between atoms: _378  and  _380
REMARK  161  A    between atoms: _380  and  _381
REMARK  162  A    between atoms: _380  and  _383
REMARK  163  A    between atoms: _383  and  _384
REMARK  164  A    between atoms: _384  and  _385
REMARK  165  A    between atoms: _387  and  _389
REMARK  166  A    between atoms: _389  and  _390
REMARK  167  A    between atoms: _389  and  _392
REMARK  168  A    between atoms: _392  and  _393
REMARK  169  A    between atoms: _396  and  _398
REMARK  170  A    between atoms: _398  and  _399
REMARK  171  A    between atoms: _401  and  _403
REMARK  172  A    between atoms: _403  and  _404
REMARK  173  A    between atoms: _406  and  _408
REMARK  174  A    between atoms: _408  and  _409
REMARK  175  A    between atoms: _408  and  _411
REMARK  176  A    between atoms: _411  and  _412
REMARK  177  A    between atoms: _415  and  _417
REMARK  178  A    between atoms: _417  and  _418
REMARK  179  A    between atoms: _420  and  _422
REMARK  180  A    between atoms: _422  and  _423
REMARK  181  A    between atoms: _425  and  _427
REMARK  182  A    between atoms: _427  and  _428
REMARK  183  A    between atoms: _427  and  _430
REMARK  184  A    between atoms: _430  and  _431
REMARK  185  A    between atoms: _434  and  _436
REMARK  186  A    between atoms: _436  and  _437
REMARK  187  A    between atoms: _436  and  _439
REMARK  188  A    between atoms: _439  and  _440
REMARK  189  A    between atoms: _444  and  _445
REMARK  190  A    between atoms: _450  and  _452
REMARK  191  A    between atoms: _452  and  _453
REMARK  192  A    between atoms: _452  and  _455
REMARK  193  A    between atoms: _455  and  _456
REMARK  194  A    between atoms: _460  and  _461
REMARK  195  A    between atoms: _466  and  _468
REMARK  196  A    between atoms: _468  and  _469
REMARK  197  A    between atoms: _468  and  _471
REMARK  198  A    between atoms: _474  and  _476
REMARK  199  A    between atoms: _476  and  _477
REMARK  200  A    between atoms: _476  and  _479
REMARK  201  A    between atoms: _479  and  _480
REMARK  202  A    between atoms: _485  and  _487
REMARK  203  A    between atoms: _487  and  _488
REMARK  204  A    between atoms: _487  and  _490
REMARK  205  A    between atoms: _490  and  _491
REMARK  206  A    between atoms: _494  and  _496
REMARK  207  A    between atoms: _496  and  _497
REMARK  208  A    between atoms: _496  and  _499
REMARK  209  A    between atoms: _499  and  _500
REMARK  210  A    between atoms: _503  and  _505
REMARK  211  A    between atoms: _505  and  _506
REMARK  212  A    between atoms: _508  and  _510
REMARK  213  A    between atoms: _510  and  _511
REMARK  214  A    between atoms: _510  and  _513
REMARK  215  A    between atoms: _513  and  _514
REMARK  216  A    between atoms: _514  and  _515
REMARK  217  A    between atoms: _515  and  _516
REMARK  218  A    between atoms: _525  and  _527
REMARK  219  A    between atoms: _527  and  _528
REMARK  220  A    between atoms: _527  and  _530
REMARK  221  A    between atoms: _530  and  _531
REMARK                            x       y       z     vdW  Elec       q    Type
REMARK                         _______ _______ _______ _____ _____    ______ ____
ROOT
ATOM      1  O   HOH     1     -20.396 -20.960  16.788  0.00  0.00    +0.000 OA
ENDROOT
TORSDOF 0
REMARK  Name = ../refined-set-2016/4heg/4heg_pocket.pdb
REMARK  221 active torsions:
REMARK  status: ('A' for Active; 'I' for Inactive)
REMARK    1  A    between atoms: _1  and  _3
REMARK    2  A    between atoms: _3  and  _4
REMARK    3  A    between atoms: _3  and  _6
REMARK    4  A    between atoms: _6  and  _7
REMARK    5  A    between atoms: _7  and  _8
REMARK    6  A    between atoms: _13  and  _15
REMARK    7  A    between atoms: _15  and  _16
REMARK    8  A    between atoms: _15  and  _18
REMARK    9  A    between atoms: _18  and  _19
REMARK   10  A    between atoms: _22  and  _24
REMARK   11  A    between atoms: _24  and  _25
REMARK   12  A    between atoms: _24  and  _27
REMARK   13  A    between atoms: _27  and  _28
REMARK   14  A    between atoms: _31  and  _33
REMARK   15  A    between atoms: _33  and  _34
REMARK   16  A    between atoms: _33  and  _36
REMARK   17  A    between atoms: _36  and  _37
REMARK   18  A    between atoms: _40  and  _42
REMARK   19  A    between atoms: _42  and  _43
REMARK   20  A    between atoms: _42  and  _45
REMARK   21  A    between atoms: _45  and  _46
REMARK   22  A    between atoms: _49  and  _51
REMARK   23  A    between atoms: _51  and  _52
REMARK   24  A    between atoms: _54  and  _56
REMARK   25  A    between atoms: _56  and  _57
REMARK   26  A    between atoms: _60  and  _62
REMARK   27  A    between atoms: _62  and  _63
REMARK   28  A    between atoms: _62  and  _65
REMARK   29  A    between atoms: _65  and  _66
REMARK   30  A    between atoms: _69  and  _71
REMARK   31  A    between atoms: _71  and  _72
REMARK   32  A    between atoms: _71  and  _74
REMARK   33  A    between atoms: _74  and  _75
REMARK   34  A    between atoms: _78  and  _80
REMARK   35  A    between atoms: _80  and  _81
REMARK   36  A    between atoms: _80  and  _83
REMARK   37  A    between atoms: _83  and  _84
REMARK   38  A    between atoms: _87  and  _89
REMARK   39  A    between atoms: _89  and  _90
REMARK   40  A    between atoms: _89  and  _92
REMARK   41  A    between atoms: _95  and  _97
REMARK   42  A    between atoms: _97  and  _98
REMARK   43  A    between atoms: _97  and  _100
REMARK   44  A    between atoms: _100  and  _101
REMARK   45  A    between atoms: _101  and  _102
REMARK   46  A    between atoms: _102  and  _103
REMARK   47  A    between atoms: _103  and  _104
REMARK   48  A    between atoms: _108  and  _110
REMARK   49  A    between atoms: _110  and  _111
REMARK   50  A    between atoms: _110  and  _113
REMARK   51  A    between atoms: _113  and  _114
REMARK   52  A    between atoms: _114  and  _115
REMARK   53  A    between atoms: _117  and  _119
REMARK   54  A    between atoms: _119  and  _120
REMARK   55  A    between atoms: _119  and  _122
REMARK   56  A    between atoms: _122  and  _123
REMARK   57  A    between atoms: _126  and  _128
REMARK   58  A    between atoms: _128  and  _129
REMARK   59  A    between atoms: _131  and  _133
REMARK   60  A    between atoms: _133  and  _134
REMARK   61  A    between atoms: _136  and  _138
REMARK   62  A    between atoms: _138  and  _139
REMARK   63  A    between atoms: _138  and  _141
REMARK   64  A    between atoms: _141  and  _142
REMARK   65  A    between atoms: _145  and  _147
REMARK   66  A    between atoms: _147  and  _148
REMARK   67  A    between atoms: _150  and  _152
REMARK   68  A    between atoms: _152  and  _153
REMARK   69  A    between atoms: _155  and  _157
REMARK   70  A    between atoms: _157  and  _158
REMARK   71  A    between atoms: _157  and  _160
REMARK   72  A    between atoms: _160  and  _161
REMARK   73  A    between atoms: _167  and  _169
REMARK   74  A    between atoms: _169  and  _170
REMARK   75  A    between atoms: _169  and  _172
REMARK   76  A    between atoms: _172  and  _173
REMARK   77  A    between atoms: _176  and  _178
REMARK   78  A    between atoms: _178  and  _179
REMARK   79  A    between atoms: _178  and  _181
REMARK   80  A    between atoms: _181  and  _182
REMARK   81  A    between atoms: _185  and  _187
REMARK   82  A    between atoms: _187  and  _188
REMARK   83  A    between atoms: _187  and  _190
REMARK   84  A    between atoms: _190  and  _191
REMARK   85  A    between atoms: _195  and  _196
REMARK   86  A    between atoms: _201  and  _203
REMARK   87  A    between atoms: _203  and  _204
REMARK   88  A    between atoms: _203  and  _206
REMARK   89  A    between atoms: _209  and  _211
REMARK   90  A    between atoms: _211  and  _212
REMARK   91  A    between atoms: _211  and  _214
REMARK   92  A    between atoms: _214  and  _215
REMARK   93  A    between atoms: _220  and  _222
REMARK   94  A    between atoms: _222  and  _223
REMARK   95  A    between atoms: _222  and  _225
REMARK   96  A    between atoms: _225  and  _226
REMARK   97  A    between atoms: _229  and  _231
REMARK   98  A    between atoms: _231  and  _232
REMARK   99  A    between atoms: _231  and  _234
REMARK  100  A    between atoms: _234  and  _235
REMARK  101  A    between atoms: _238  and  _240
REMARK  102  A    between atoms: _240  and  _241
REMARK  103  A    between atoms: _243  and  _245
REMARK  104  A    between atoms: _245  and  _246
REMARK  105  A    between atoms: _245  and  _248
REMARK  106  A    between atoms: _248  and  _249
REMARK  107  A    between atoms: _249  and  _250
REMARK  108  A    between atoms: _250  and  _251
REMARK  109  A    between atoms: _260  and  _262
REMARK  110  A    between atoms: _262  and  _263
REMARK  111  A    between atoms: _262  and  _265
REMARK  112  A    between atoms: _265  and  _266
REMARK  113  A    between atoms: _271  and  _273
REMARK  114  A    between atoms: _273  and  _274
REMARK  115  A    between atoms: _273  and  _276
REMARK  116  A    between atoms: _276  and  _277
REMARK  117  A    between atoms: _277  and  _278
REMARK  118  A    between atoms: _283  and  _285
REMARK  119  A    between atoms: _285  and  _286
REMARK  120  A    between atoms: _285  and  _288
REMARK  121  A    between atoms: _288  and  _289
REMARK  122  A    between atoms: _292  and  _294
REMARK  123  A    between atoms: _294  and  _295
REMARK  124  A    between atoms: _294  and  _297
REMARK  125  A    between atoms: _297  and  _298
REMARK  126  A    between atoms: _301  and  _303
REMARK  127  A    between atoms: _303  and  _304
REMARK  128  A    between atoms: _303  and  _306
REMARK  129  A    between atoms: _306  and  _307
REMARK  130  A    between atoms: _310  and  _312
REMARK  131  A    between atoms: _312  and  _313
REMARK  132  A    between atoms: _312  and  _315
REMARK  133  A    between atoms: _315  and  _316
REMARK  134  A    between atoms: _319  and  _321
REMARK  135  A    between atoms: _321  and  _322
REMARK  136  A    between atoms: _324  and  _326
REMARK  137  A    between atoms: _326  and  _327
REMARK  138  A    between atoms: _330  and  _332
REMARK  139  A    between atoms: _332  and  _333
REMARK  140  A    between atoms: _332  and  _335
REMARK  141  A    between atoms: _335  and  _336
REMARK  142  A    between atoms: _339  and  _341
REMARK  143  A    between atoms: _341  and  _342
REMARK  144  A    between atoms: _341  and  _344
REMARK  145  A    between atoms: _344  and  _345
REMARK  146  A    between atoms: _348  and  _350
REMARK  147  A    between atoms: _350  and  _351
REMARK  148  A    between atoms: _350  and  _353
REMARK  149  A    between atoms: _353  and  _354
REMARK  150  A    between atoms: _357  and  _359
REMARK  151  A    between atoms: _359  and  _360
REMARK  152  A    between atoms: _359  and  _362
REMARK  153  A    between atoms: _365  and  _367
REMARK  154  A    between atoms: _367  and  _368
REMARK  155  A    between atoms: _367  and  _370
REMARK  156  A    between atoms: _370  and  _371
REMARK  157  A    between atoms: _371  and  _372
REMARK  158  A    between atoms: _372  and  _373
REMARK  159  A    between atoms: _373  and  _374
REMARK  160  A    between atoms: _378  and  _380
REMARK  161  A    between atoms: _380  and  _381
REMARK  162  A    between atoms: _380  and  _383
REMARK  163  A    between atoms: _383  and  _384
REMARK  164  A    between atoms: _384  and  _385
REMARK  165  A    between atoms: _387  and  _389
REMARK  166  A    between atoms: _389  and  _390
REMARK  167  A    between atoms: _389  and  _392
REMARK  168  A    between atoms: _392  and  _393
REMARK  169  A    between atoms: _396  and  _398
REMARK  170  A    between atoms: _398  and  _399
REMARK  171  A    between atoms: _401  and  _403
REMARK  172  A    between atoms: _403  and  _404
REMARK  173  A    between atoms: _406  and  _408
REMARK  174  A    between atoms: _408  and  _409
REMARK  175  A    between atoms: _408  and  _411
REMARK  176  A    between atoms: _411  and  _412
REMARK  177  A    between atoms: _415  and  _417
REMARK  178  A    between atoms: _417  and  _418
REMARK  179  A    between atoms: _420  and  _422
REMARK  180  A    between atoms: _422  and  _423
REMARK  181  A    between atoms: _425  and  _427
REMARK  182  A    between atoms: _427  and  _428
REMARK  183  A    between atoms: _427  and  _430
REMARK  184  A    between atoms: _430  and  _431
REMARK  185  A    between atoms: _434  and  _436
REMARK  186  A    between atoms: _436  and  _437
REMARK  187  A    between atoms: _436  and  _439
REMARK  188  A    between atoms: _439  and  _440
REMARK  189  A    between atoms: _444  and  _445
REMARK  190  A    between atoms: _450  and  _452
REMARK  191  A    between atoms: _452  and  _453
REMARK  192  A    between atoms: _452  and  _455
REMARK  193  A    between atoms: _455  and  _456
REMARK  194  A    between atoms: _460  and  _461
REMARK  195  A    between atoms: _466  and  _468
REMARK  196  A    between atoms: _468  and  _469
REMARK  197  A    between atoms: _468  and  _471
REMARK  198  A    between atoms: _474  and  _476
REMARK  199  A    between atoms: _476  and  _477
REMARK  200  A    between atoms: _476  and  _479
REMARK  201  A    between atoms: _479  and  _480
REMARK  202  A    between atoms: _485  and  _487
REMARK  203  A    between atoms: _487  and  _488
REMARK  204  A    between atoms: _487  and  _490
REMARK  205  A    between atoms: _490  and  _491
REMARK  206  A    between atoms: _494  and  _496
REMARK  207  A    between atoms: _496  and  _497
REMARK  208  A    between atoms: _496  and  _499
REMARK  209  A    between atoms: _499  and  _500
REMARK  210  A    between atoms: _503  and  _505
REMARK  211  A    between atoms: _505  and  _506
REMARK  212  A    between atoms: _508  and  _510
REMARK  213  A    between atoms: _510  and  _511
REMARK  214  A    between atoms: _510  and  _513
REMARK  215  A    between atoms: _513  and  _514
REMARK  216  A    between atoms: _514  and  _515
REMARK  217  A    between atoms: _515  and  _516
REMARK  218  A    between atoms: _525  and  _527
REMARK  219  A    between atoms: _527  and  _528
REMARK  220  A    between atoms: _527  and  _530
REMARK  221  A    between atoms: _530  and  _531
REMARK                            x       y       z     vdW  Elec       q    Type
REMARK                         _______ _______ _______ _____ _____    ______ ____
ROOT
ATOM      1  O   HOH     1     -11.116 -22.382  16.478  0.00  0.00    +0.000 OA
ENDROOT
TORSDOF 0
REMARK  Name = ../refined-set-2016/4heg/4heg_pocket.pdb
REMARK  221 active torsions:
REMARK  status: ('A' for Active; 'I' for Inactive)
REMARK    1  A    between atoms: _1  and  _3
REMARK    2  A    between atoms: _3  and  _4
REMARK    3  A    between atoms: _3  and  _6
REMARK    4  A    between atoms: _6  and  _7
REMARK    5  A    between atoms: _7  and  _8
REMARK    6  A    between atoms: _13  and  _15
REMARK    7  A    between atoms: _15  and  _16
REMARK    8  A    between atoms: _15  and  _18
REMARK    9  A    between atoms: _18  and  _19
REMARK   10  A    between atoms: _22  and  _24
REMARK   11  A    between atoms: _24  and  _25
REMARK   12  A    between atoms: _24  and  _27
REMARK   13  A    between atoms: _27  and  _28
REMARK   14  A    between atoms: _31  and  _33
REMARK   15  A    between atoms: _33  and  _34
REMARK   16  A    between atoms: _33  and  _36
REMARK   17  A    between atoms: _36  and  _37
REMARK   18  A    between atoms: _40  and  _42
REMARK   19  A    between atoms: _42  and  _43
REMARK   20  A    between atoms: _42  and  _45
REMARK   21  A    between atoms: _45  and  _46
REMARK   22  A    between atoms: _49  and  _51
REMARK   23  A    between atoms: _51  and  _52
REMARK   24  A    between atoms: _54  and  _56
REMARK   25  A    between atoms: _56  and  _57
REMARK   26  A    between atoms: _60  and  _62
REMARK   27  A    between atoms: _62  and  _63
REMARK   28  A    between atoms: _62  and  _65
REMARK   29  A    between atoms: _65  and  _66
REMARK   30  A    between atoms: _69  and  _71
REMARK   31  A    between atoms: _71  and  _72
REMARK   32  A    between atoms: _71  and  _74
REMARK   33  A    between atoms: _74  and  _75
REMARK   34  A    between atoms: _78  and  _80
REMARK   35  A    between atoms: _80  and  _81
REMARK   36  A    between atoms: _80  and  _83
REMARK   37  A    between atoms: _83  and  _84
REMARK   38  A    between atoms: _87  and  _89
REMARK   39  A    between atoms: _89  and  _90
REMARK   40  A    between atoms: _89  and  _92
REMARK   41  A    between atoms: _95  and  _97
REMARK   42  A    between atoms: _97  and  _98
REMARK   43  A    between atoms: _97  and  _100
REMARK   44  A    between atoms: _100  and  _101
REMARK   45  A    between atoms: _101  and  _102
REMARK   46  A    between atoms: _102  and  _103
REMARK   47  A    between atoms: _103  and  _104
REMARK   48  A    between atoms: _108  and  _110
REMARK   49  A    between atoms: _110  and  _111
REMARK   50  A    between atoms: _110  and  _113
REMARK   51  A    between atoms: _113  and  _114
REMARK   52  A    between atoms: _114  and  _115
REMARK   53  A    between atoms: _117  and  _119
REMARK   54  A    between atoms: _119  and  _120
REMARK   55  A    between atoms: _119  and  _122
REMARK   56  A    between atoms: _122  and  _123
REMARK   57  A    between atoms: _126  and  _128
REMARK   58  A    between atoms: _128  and  _129
REMARK   59  A    between atoms: _131  and  _133
REMARK   60  A    between atoms: _133  and  _134
REMARK   61  A    between atoms: _136  and  _138
REMARK   62  A    between atoms: _138  and  _139
REMARK   63  A    between atoms: _138  and  _141
REMARK   64  A    between atoms: _141  and  _142
REMARK   65  A    between atoms: _145  and  _147
REMARK   66  A    between atoms: _147  and  _148
REMARK   67  A    between atoms: _150  and  _152
REMARK   68  A    between atoms: _152  and  _153
REMARK   69  A    between atoms: _155  and  _157
REMARK   70  A    between atoms: _157  and  _158
REMARK   71  A    between atoms: _157  and  _160
REMARK   72  A    between atoms: _160  and  _161
REMARK   73  A    between atoms: _167  and  _169
REMARK   74  A    between atoms: _169  and  _170
REMARK   75  A    between atoms: _169  and  _172
REMARK   76  A    between atoms: _172  and  _173
REMARK   77  A    between atoms: _176  and  _178
REMARK   78  A    between atoms: _178  and  _179
REMARK   79  A    between atoms: _178  and  _181
REMARK   80  A    between atoms: _181  and  _182
REMARK   81  A    between atoms: _185  and  _187
REMARK   82  A    between atoms: _187  and  _188
REMARK   83  A    between atoms: _187  and  _190
REMARK   84  A    between atoms: _190  and  _191
REMARK   85  A    between atoms: _195  and  _196
REMARK   86  A    between atoms: _201  and  _203
REMARK   87  A    between atoms: _203  and  _204
REMARK   88  A    between atoms: _203  and  _206
REMARK   89  A    between atoms: _209  and  _211
REMARK   90  A    between atoms: _211  and  _212
REMARK   91  A    between atoms: _211  and  _214
REMARK   92  A    between atoms: _214  and  _215
REMARK   93  A    between atoms: _220  and  _222
REMARK   94  A    between atoms: _222  and  _223
REMARK   95  A    between atoms: _222  and  _225
REMARK   96  A    between atoms: _225  and  _226
REMARK   97  A    between atoms: _229  and  _231
REMARK   98  A    between atoms: _231  and  _232
REMARK   99  A    between atoms: _231  and  _234
REMARK  100  A    between atoms: _234  and  _235
REMARK  101  A    between atoms: _238  and  _240
REMARK  102  A    between atoms: _240  and  _241
REMARK  103  A    between atoms: _243  and  _245
REMARK  104  A    between atoms: _245  and  _246
REMARK  105  A    between atoms: _245  and  _248
REMARK  106  A    between atoms: _248  and  _249
REMARK  107  A    between atoms: _249  and  _250
REMARK  108  A    between atoms: _250  and  _251
REMARK  109  A    between atoms: _260  and  _262
REMARK  110  A    between atoms: _262  and  _263
REMARK  111  A    between atoms: _262  and  _265
REMARK  112  A    between atoms: _265  and  _266
REMARK  113  A    between atoms: _271  and  _273
REMARK  114  A    between atoms: _273  and  _274
REMARK  115  A    between atoms: _273  and  _276
REMARK  116  A    between atoms: _276  and  _277
REMARK  117  A    between atoms: _277  and  _278
REMARK  118  A    between atoms: _283  and  _285
REMARK  119  A    between atoms: _285  and  _286
REMARK  120  A    between atoms: _285  and  _288
REMARK  121  A    between atoms: _288  and  _289
REMARK  122  A    between atoms: _292  and  _294
REMARK  123  A    between atoms: _294  and  _295
REMARK  124  A    between atoms: _294  and  _297
REMARK  125  A    between atoms: _297  and  _298
REMARK  126  A    between atoms: _301  and  _303
REMARK  127  A    between atoms: _303  and  _304
REMARK  128  A    between atoms: _303  and  _306
REMARK  129  A    between atoms: _306  and  _307
REMARK  130  A    between atoms: _310  and  _312
REMARK  131  A    between atoms: _312  and  _313
REMARK  132  A    between atoms: _312  and  _315
REMARK  133  A    between atoms: _315  and  _316
REMARK  134  A    between atoms: _319  and  _321
REMARK  135  A    between atoms: _321  and  _322
REMARK  136  A    between atoms: _324  and  _326
REMARK  137  A    between atoms: _326  and  _327
REMARK  138  A    between atoms: _330  and  _332
REMARK  139  A    between atoms: _332  and  _333
REMARK  140  A    between atoms: _332  and  _335
REMARK  141  A    between atoms: _335  and  _336
REMARK  142  A    between atoms: _339  and  _341
REMARK  143  A    between atoms: _341  and  _342
REMARK  144  A    between atoms: _341  and  _344
REMARK  145  A    between atoms: _344  and  _345
REMARK  146  A    between atoms: _348  and  _350
REMARK  147  A    between atoms: _350  and  _351
REMARK  148  A    between atoms: _350  and  _353
REMARK  149  A    between atoms: _353  and  _354
REMARK  150  A    between atoms: _357  and  _359
REMARK  151  A    between atoms: _359  and  _360
REMARK  152  A    between atoms: _359  and  _362
REMARK  153  A    between atoms: _365  and  _367
REMARK  154  A    between atoms: _367  and  _368
REMARK  155  A    between atoms: _367  and  _370
REMARK  156  A    between atoms: _370  and  _371
REMARK  157  A    between atoms: _371  and  _372
REMARK  158  A    between atoms: _372  and  _373
REMARK  159  A    between atoms: _373  and  _374
REMARK  160  A    between atoms: _378  and  _380
REMARK  161  A    between atoms: _380  and  _381
REMARK  162  A    between atoms: _380  and  _383
REMARK  163  A    between atoms: _383  and  _384
REMARK  164  A    between atoms: _384  and  _385
REMARK  165  A    between atoms: _387  and  _389
REMARK  166  A    between atoms: _389  and  _390
REMARK  167  A    between atoms: _389  and  _392
REMARK  168  A    between atoms: _392  and  _393
REMARK  169  A    between atoms: _396  and  _398
REMARK  170  A    between atoms: _398  and  _399
REMARK  171  A    between atoms: _401  and  _403
REMARK  172  A    between atoms: _403  and  _404
REMARK  173  A    between atoms: _406  and  _408
REMARK  174  A    between atoms: _408  and  _409
REMARK  175  A    between atoms: _408  and  _411
REMARK  176  A    between atoms: _411  and  _412
REMARK  177  A    between atoms: _415  and  _417
REMARK  178  A    between atoms: _417  and  _418
REMARK  179  A    between atoms: _420  and  _422
REMARK  180  A    between atoms: _422  and  _423
REMARK  181  A    between atoms: _425  and  _427
REMARK  182  A    between atoms: _427  and  _428
REMARK  183  A    between atoms: _427  and  _430
REMARK  184  A    between atoms: _430  and  _431
REMARK  185  A    between atoms: _434  and  _436
REMARK  186  A    between atoms: _436  and  _437
REMARK  187  A    between atoms: _436  and  _439
REMARK  188  A    between atoms: _439  and  _440
REMARK  189  A    between atoms: _444  and  _445
REMARK  190  A    between atoms: _450  and  _452
REMARK  191  A    between atoms: _452  and  _453
REMARK  192  A    between atoms: _452  and  _455
REMARK  193  A    between atoms: _455  and  _456
REMARK  194  A    between atoms: _460  and  _461
REMARK  195  A    between atoms: _466  and  _468
REMARK  196  A    between atoms: _468  and  _469
REMARK  197  A    between atoms: _468  and  _471
REMARK  198  A    between atoms: _474  and  _476
REMARK  199  A    between atoms: _476  and  _477
REMARK  200  A    between atoms: _476  and  _479
REMARK  201  A    between atoms: _479  and  _480
REMARK  202  A    between atoms: _485  and  _487
REMARK  203  A    between atoms: _487  and  _488
REMARK  204  A    between atoms: _487  and  _490
REMARK  205  A    between atoms: _490  and  _491
REMARK  206  A    between atoms: _494  and  _496
REMARK  207  A    between atoms: _496  and  _497
REMARK  208  A    between atoms: _496  and  _499
REMARK  209  A    between atoms: _499  and  _500
REMARK  210  A    between atoms: _503  and  _505
REMARK  211  A    between atoms: _505  and  _506
REMARK  212  A    between atoms: _508  and  _510
REMARK  213  A    between atoms: _510  and  _511
REMARK  214  A    between atoms: _510  and  _513
REMARK  215  A    between atoms: _513  and  _514
REMARK  216  A    between atoms: _514  and  _515
REMARK  217  A    between atoms: _515  and  _516
REMARK  218  A    between atoms: _525  and  _527
REMARK  219  A    between atoms: _527  and  _528
REMARK  220  A    between atoms: _527  and  _530
REMARK  221  A    between atoms: _530  and  _531
REMARK                            x       y       z     vdW  Elec       q    Type
REMARK                         _______ _______ _______ _____ _____    ______ ____
ROOT
ATOM      1  O   HOH     1      -7.085 -16.010  22.583  0.00  0.00    +0.000 OA
ENDROOT
TORSDOF 0
REMARK  Name = ../refined-set-2016/4heg/4heg_pocket.pdb
REMARK  221 active torsions:
REMARK  status: ('A' for Active; 'I' for Inactive)
REMARK    1  A    between atoms: _1  and  _3
REMARK    2  A    between atoms: _3  and  _4
REMARK    3  A    between atoms: _3  and  _6
REMARK    4  A    between atoms: _6  and  _7
REMARK    5  A    between atoms: _7  and  _8
REMARK    6  A    between atoms: _13  and  _15
REMARK    7  A    between atoms: _15  and  _16
REMARK    8  A    between atoms: _15  and  _18
REMARK    9  A    between atoms: _18  and  _19
REMARK   10  A    between atoms: _22  and  _24
REMARK   11  A    between atoms: _24  and  _25
REMARK   12  A    between atoms: _24  and  _27
REMARK   13  A    between atoms: _27  and  _28
REMARK   14  A    between atoms: _31  and  _33
REMARK   15  A    between atoms: _33  and  _34
REMARK   16  A    between atoms: _33  and  _36
REMARK   17  A    between atoms: _36  and  _37
REMARK   18  A    between atoms: _40  and  _42
REMARK   19  A    between atoms: _42  and  _43
REMARK   20  A    between atoms: _42  and  _45
REMARK   21  A    between atoms: _45  and  _46
REMARK   22  A    between atoms: _49  and  _51
REMARK   23  A    between atoms: _51  and  _52
REMARK   24  A    between atoms: _54  and  _56
REMARK   25  A    between atoms: _56  and  _57
REMARK   26  A    between atoms: _60  and  _62
REMARK   27  A    between atoms: _62  and  _63
REMARK   28  A    between atoms: _62  and  _65
REMARK   29  A    between atoms: _65  and  _66
REMARK   30  A    between atoms: _69  and  _71
REMARK   31  A    between atoms: _71  and  _72
REMARK   32  A    between atoms: _71  and  _74
REMARK   33  A    between atoms: _74  and  _75
REMARK   34  A    between atoms: _78  and  _80
REMARK   35  A    between atoms: _80  and  _81
REMARK   36  A    between atoms: _80  and  _83
REMARK   37  A    between atoms: _83  and  _84
REMARK   38  A    between atoms: _87  and  _89
REMARK   39  A    between atoms: _89  and  _90
REMARK   40  A    between atoms: _89  and  _92
REMARK   41  A    between atoms: _95  and  _97
REMARK   42  A    between atoms: _97  and  _98
REMARK   43  A    between atoms: _97  and  _100
REMARK   44  A    between atoms: _100  and  _101
REMARK   45  A    between atoms: _101  and  _102
REMARK   46  A    between atoms: _102  and  _103
REMARK   47  A    between atoms: _103  and  _104
REMARK   48  A    between atoms: _108  and  _110
REMARK   49  A    between atoms: _110  and  _111
REMARK   50  A    between atoms: _110  and  _113
REMARK   51  A    between atoms: _113  and  _114
REMARK   52  A    between atoms: _114  and  _115
REMARK   53  A    between atoms: _117  and  _119
REMARK   54  A    between atoms: _119  and  _120
REMARK   55  A    between atoms: _119  and  _122
REMARK   56  A    between atoms: _122  and  _123
REMARK   57  A    between atoms: _126  and  _128
REMARK   58  A    between atoms: _128  and  _129
REMARK   59  A    between atoms: _131  and  _133
REMARK   60  A    between atoms: _133  and  _134
REMARK   61  A    between atoms: _136  and  _138
REMARK   62  A    between atoms: _138  and  _139
REMARK   63  A    between atoms: _138  and  _141
REMARK   64  A    between atoms: _141  and  _142
REMARK   65  A    between atoms: _145  and  _147
REMARK   66  A    between atoms: _147  and  _148
REMARK   67  A    between atoms: _150  and  _152
REMARK   68  A    between atoms: _152  and  _153
REMARK   69  A    between atoms: _155  and  _157
REMARK   70  A    between atoms: _157  and  _158
REMARK   71  A    between atoms: _157  and  _160
REMARK   72  A    between atoms: _160  and  _161
REMARK   73  A    between atoms: _167  and  _169
REMARK   74  A    between atoms: _169  and  _170
REMARK   75  A    between atoms: _169  and  _172
REMARK   76  A    between atoms: _172  and  _173
REMARK   77  A    between atoms: _176  and  _178
REMARK   78  A    between atoms: _178  and  _179
REMARK   79  A    between atoms: _178  and  _181
REMARK   80  A    between atoms: _181  and  _182
REMARK   81  A    between atoms: _185  and  _187
REMARK   82  A    between atoms: _187  and  _188
REMARK   83  A    between atoms: _187  and  _190
REMARK   84  A    between atoms: _190  and  _191
REMARK   85  A    between atoms: _195  and  _196
REMARK   86  A    between atoms: _201  and  _203
REMARK   87  A    between atoms: _203  and  _204
REMARK   88  A    between atoms: _203  and  _206
REMARK   89  A    between atoms: _209  and  _211
REMARK   90  A    between atoms: _211  and  _212
REMARK   91  A    between atoms: _211  and  _214
REMARK   92  A    between atoms: _214  and  _215
REMARK   93  A    between atoms: _220  and  _222
REMARK   94  A    between atoms: _222  and  _223
REMARK   95  A    between atoms: _222  and  _225
REMARK   96  A    between atoms: _225  and  _226
REMARK   97  A    between atoms: _229  and  _231
REMARK   98  A    between atoms: _231  and  _232
REMARK   99  A    between atoms: _231  and  _234
REMARK  100  A    between atoms: _234  and  _235
REMARK  101  A    between atoms: _238  and  _240
REMARK  102  A    between atoms: _240  and  _241
REMARK  103  A    between atoms: _243  and  _245
REMARK  104  A    between atoms: _245  and  _246
REMARK  105  A    between atoms: _245  and  _248
REMARK  106  A    between atoms: _248  and  _249
REMARK  107  A    between atoms: _249  and  _250
REMARK  108  A    between atoms: _250  and  _251
REMARK  109  A    between atoms: _260  and  _262
REMARK  110  A    between atoms: _262  and  _263
REMARK  111  A    between atoms: _262  and  _265
REMARK  112  A    between atoms: _265  and  _266
REMARK  113  A    between atoms: _271  and  _273
REMARK  114  A    between atoms: _273  and  _274
REMARK  115  A    between atoms: _273  and  _276
REMARK  116  A    between atoms: _276  and  _277
REMARK  117  A    between atoms: _277  and  _278
REMARK  118  A    between atoms: _283  and  _285
REMARK  119  A    between atoms: _285  and  _286
REMARK  120  A    between atoms: _285  and  _288
REMARK  121  A    between atoms: _288  and  _289
REMARK  122  A    between atoms: _292  and  _294
REMARK  123  A    between atoms: _294  and  _295
REMARK  124  A    between atoms: _294  and  _297
REMARK  125  A    between atoms: _297  and  _298
REMARK  126  A    between atoms: _301  and  _303
REMARK  127  A    between atoms: _303  and  _304
REMARK  128  A    between atoms: _303  and  _306
REMARK  129  A    between atoms: _306  and  _307
REMARK  130  A    between atoms: _310  and  _312
REMARK  131  A    between atoms: _312  and  _313
REMARK  132  A    between atoms: _312  and  _315
REMARK  133  A    between atoms: _315  and  _316
REMARK  134  A    between atoms: _319  and  _321
REMARK  135  A    between atoms: _321  and  _322
REMARK  136  A    between atoms: _324  and  _326
REMARK  137  A    between atoms: _326  and  _327
REMARK  138  A    between atoms: _330  and  _332
REMARK  139  A    between atoms: _332  and  _333
REMARK  140  A    between atoms: _332  and  _335
REMARK  141  A    between atoms: _335  and  _336
REMARK  142  A    between atoms: _339  and  _341
REMARK  143  A    between atoms: _341  and  _342
REMARK  144  A    between atoms: _341  and  _344
REMARK  145  A    between atoms: _344  and  _345
REMARK  146  A    between atoms: _348  and  _350
REMARK  147  A    between atoms: _350  and  _351
REMARK  148  A    between atoms: _350  and  _353
REMARK  149  A    between atoms: _353  and  _354
REMARK  150  A    between atoms: _357  and  _359
REMARK  151  A    between atoms: _359  and  _360
REMARK  152  A    between atoms: _359  and  _362
REMARK  153  A    between atoms: _365  and  _367
REMARK  154  A    between atoms: _367  and  _368
REMARK  155  A    between atoms: _367  and  _370
REMARK  156  A    between atoms: _370  and  _371
REMARK  157  A    between atoms: _371  and  _372
REMARK  158  A    between atoms: _372  and  _373
REMARK  159  A    between atoms: _373  and  _374
REMARK  160  A    between atoms: _378  and  _380
REMARK  161  A    between atoms: _380  and  _381
REMARK  162  A    between atoms: _380  and  _383
REMARK  163  A    between atoms: _383  and  _384
REMARK  164  A    between atoms: _384  and  _385
REMARK  165  A    between atoms: _387  and  _389
REMARK  166  A    between atoms: _389  and  _390
REMARK  167  A    between atoms: _389  and  _392
REMARK  168  A    between atoms: _392  and  _393
REMARK  169  A    between atoms: _396  and  _398
REMARK  170  A    between atoms: _398  and  _399
REMARK  171  A    between atoms: _401  and  _403
REMARK  172  A    between atoms: _403  and  _404
REMARK  173  A    between atoms: _406  and  _408
REMARK  174  A    between atoms: _408  and  _409
REMARK  175  A    between atoms: _408  and  _411
REMARK  176  A    between atoms: _411  and  _412
REMARK  177  A    between atoms: _415  and  _417
REMARK  178  A    between atoms: _417  and  _418
REMARK  179  A    between atoms: _420  and  _422
REMARK  180  A    between atoms: _422  and  _423
REMARK  181  A    between atoms: _425  and  _427
REMARK  182  A    between atoms: _427  and  _428
REMARK  183  A    between atoms: _427  and  _430
REMARK  184  A    between atoms: _430  and  _431
REMARK  185  A    between atoms: _434  and  _436
REMARK  186  A    between atoms: _436  and  _437
REMARK  187  A    between atoms: _436  and  _439
REMARK  188  A    between atoms: _439  and  _440
REMARK  189  A    between atoms: _444  and  _445
REMARK  190  A    between atoms: _450  and  _452
REMARK  191  A    between atoms: _452  and  _453
REMARK  192  A    between atoms: _452  and  _455
REMARK  193  A    between atoms: _455  and  _456
REMARK  194  A    between atoms: _460  and  _461
REMARK  195  A    between atoms: _466  and  _468
REMARK  196  A    between atoms: _468  and  _469
REMARK  197  A    between atoms: _468  and  _471
REMARK  198  A    between atoms: _474  and  _476
REMARK  199  A    between atoms: _476  and  _477
REMARK  200  A    between atoms: _476  and  _479
REMARK  201  A    between atoms: _479  and  _480
REMARK  202  A    between atoms: _485  and  _487
REMARK  203  A    between atoms: _487  and  _488
REMARK  204  A    between atoms: _487  and  _490
REMARK  205  A    between atoms: _490  and  _491
REMARK  206  A    between atoms: _494  and  _496
REMARK  207  A    between atoms: _496  and  _497
REMARK  208  A    between atoms: _496  and  _499
REMARK  209  A    between atoms: _499  and  _500
REMARK  210  A    between atoms: _503  and  _505
REMARK  211  A    between atoms: _505  and  _506
REMARK  212  A    between atoms: _508  and  _510
REMARK  213  A    between atoms: _510  and  _511
REMARK  214  A    between atoms: _510  and  _513
REMARK  215  A    between atoms: _513  and  _514
REMARK  216  A    between atoms: _514  and  _515
REMARK  217  A    between atoms: _515  and  _516
REMARK  218  A    between atoms: _525  and  _527
REMARK  219  A    between atoms: _527  and  _528
REMARK  220  A    between atoms: _527  and  _530
REMARK  221  A    between atoms: _530  and  _531
REMARK                            x       y       z     vdW  Elec       q    Type
REMARK                         _______ _______ _______ _____ _____    ______ ____
ROOT
ATOM      1  O   HOH     1     -24.745 -23.926  22.785  0.00  0.00    +0.000 OA
ENDROOT
TORSDOF 0
REMARK  Name = ../refined-set-2016/4heg/4heg_pocket.pdb
REMARK  221 active torsions:
REMARK  status: ('A' for Active; 'I' for Inactive)
REMARK    1  A    between atoms: _1  and  _3
REMARK    2  A    between atoms: _3  and  _4
REMARK    3  A    between atoms: _3  and  _6
REMARK    4  A    between atoms: _6  and  _7
REMARK    5  A    between atoms: _7  and  _8
REMARK    6  A    between atoms: _13  and  _15
REMARK    7  A    between atoms: _15  and  _16
REMARK    8  A    between atoms: _15  and  _18
REMARK    9  A    between atoms: _18  and  _19
REMARK   10  A    between atoms: _22  and  _24
REMARK   11  A    between atoms: _24  and  _25
REMARK   12  A    between atoms: _24  and  _27
REMARK   13  A    between atoms: _27  and  _28
REMARK   14  A    between atoms: _31  and  _33
REMARK   15  A    between atoms: _33  and  _34
REMARK   16  A    between atoms: _33  and  _36
REMARK   17  A    between atoms: _36  and  _37
REMARK   18  A    between atoms: _40  and  _42
REMARK   19  A    between atoms: _42  and  _43
REMARK   20  A    between atoms: _42  and  _45
REMARK   21  A    between atoms: _45  and  _46
REMARK   22  A    between atoms: _49  and  _51
REMARK   23  A    between atoms: _51  and  _52
REMARK   24  A    between atoms: _54  and  _56
REMARK   25  A    between atoms: _56  and  _57
REMARK   26  A    between atoms: _60  and  _62
REMARK   27  A    between atoms: _62  and  _63
REMARK   28  A    between atoms: _62  and  _65
REMARK   29  A    between atoms: _65  and  _66
REMARK   30  A    between atoms: _69  and  _71
REMARK   31  A    between atoms: _71  and  _72
REMARK   32  A    between atoms: _71  and  _74
REMARK   33  A    between atoms: _74  and  _75
REMARK   34  A    between atoms: _78  and  _80
REMARK   35  A    between atoms: _80  and  _81
REMARK   36  A    between atoms: _80  and  _83
REMARK   37  A    between atoms: _83  and  _84
REMARK   38  A    between atoms: _87  and  _89
REMARK   39  A    between atoms: _89  and  _90
REMARK   40  A    between atoms: _89  and  _92
REMARK   41  A    between atoms: _95  and  _97
REMARK   42  A    between atoms: _97  and  _98
REMARK   43  A    between atoms: _97  and  _100
REMARK   44  A    between atoms: _100  and  _101
REMARK   45  A    between atoms: _101  and  _102
REMARK   46  A    between atoms: _102  and  _103
REMARK   47  A    between atoms: _103  and  _104
REMARK   48  A    between atoms: _108  and  _110
REMARK   49  A    between atoms: _110  and  _111
REMARK   50  A    between atoms: _110  and  _113
REMARK   51  A    between atoms: _113  and  _114
REMARK   52  A    between atoms: _114  and  _115
REMARK   53  A    between atoms: _117  and  _119
REMARK   54  A    between atoms: _119  and  _120
REMARK   55  A    between atoms: _119  and  _122
REMARK   56  A    between atoms: _122  and  _123
REMARK   57  A    between atoms: _126  and  _128
REMARK   58  A    between atoms: _128  and  _129
REMARK   59  A    between atoms: _131  and  _133
REMARK   60  A    between atoms: _133  and  _134
REMARK   61  A    between atoms: _136  and  _138
REMARK   62  A    between atoms: _138  and  _139
REMARK   63  A    between atoms: _138  and  _141
REMARK   64  A    between atoms: _141  and  _142
REMARK   65  A    between atoms: _145  and  _147
REMARK   66  A    between atoms: _147  and  _148
REMARK   67  A    between atoms: _150  and  _152
REMARK   68  A    between atoms: _152  and  _153
REMARK   69  A    between atoms: _155  and  _157
REMARK   70  A    between atoms: _157  and  _158
REMARK   71  A    between atoms: _157  and  _160
REMARK   72  A    between atoms: _160  and  _161
REMARK   73  A    between atoms: _167  and  _169
REMARK   74  A    between atoms: _169  and  _170
REMARK   75  A    between atoms: _169  and  _172
REMARK   76  A    between atoms: _172  and  _173
REMARK   77  A    between atoms: _176  and  _178
REMARK   78  A    between atoms: _178  and  _179
REMARK   79  A    between atoms: _178  and  _181
REMARK   80  A    between atoms: _181  and  _182
REMARK   81  A    between atoms: _185  and  _187
REMARK   82  A    between atoms: _187  and  _188
REMARK   83  A    between atoms: _187  and  _190
REMARK   84  A    between atoms: _190  and  _191
REMARK   85  A    between atoms: _195  and  _196
REMARK   86  A    between atoms: _201  and  _203
REMARK   87  A    between atoms: _203  and  _204
REMARK   88  A    between atoms: _203  and  _206
REMARK   89  A    between atoms: _209  and  _211
REMARK   90  A    between atoms: _211  and  _212
REMARK   91  A    between atoms: _211  and  _214
REMARK   92  A    between atoms: _214  and  _215
REMARK   93  A    between atoms: _220  and  _222
REMARK   94  A    between atoms: _222  and  _223
REMARK   95  A    between atoms: _222  and  _225
REMARK   96  A    between atoms: _225  and  _226
REMARK   97  A    between atoms: _229  and  _231
REMARK   98  A    between atoms: _231  and  _232
REMARK   99  A    between atoms: _231  and  _234
REMARK  100  A    between atoms: _234  and  _235
REMARK  101  A    between atoms: _238  and  _240
REMARK  102  A    between atoms: _240  and  _241
REMARK  103  A    between atoms: _243  and  _245
REMARK  104  A    between atoms: _245  and  _246
REMARK  105  A    between atoms: _245  and  _248
REMARK  106  A    between atoms: _248  and  _249
REMARK  107  A    between atoms: _249  and  _250
REMARK  108  A    between atoms: _250  and  _251
REMARK  109  A    between atoms: _260  and  _262
REMARK  110  A    between atoms: _262  and  _263
REMARK  111  A    between atoms: _262  and  _265
REMARK  112  A    between atoms: _265  and  _266
REMARK  113  A    between atoms: _271  and  _273
REMARK  114  A    between atoms: _273  and  _274
REMARK  115  A    between atoms: _273  and  _276
REMARK  116  A    between atoms: _276  and  _277
REMARK  117  A    between atoms: _277  and  _278
REMARK  118  A    between atoms: _283  and  _285
REMARK  119  A    between atoms: _285  and  _286
REMARK  120  A    between atoms: _285  and  _288
REMARK  121  A    between atoms: _288  and  _289
REMARK  122  A    between atoms: _292  and  _294
REMARK  123  A    between atoms: _294  and  _295
REMARK  124  A    between atoms: _294  and  _297
REMARK  125  A    between atoms: _297  and  _298
REMARK  126  A    between atoms: _301  and  _303
REMARK  127  A    between atoms: _303  and  _304
REMARK  128  A    between atoms: _303  and  _306
REMARK  129  A    between atoms: _306  and  _307
REMARK  130  A    between atoms: _310  and  _312
REMARK  131  A    between atoms: _312  and  _313
REMARK  132  A    between atoms: _312  and  _315
REMARK  133  A    between atoms: _315  and  _316
REMARK  134  A    between atoms: _319  and  _321
REMARK  135  A    between atoms: _321  and  _322
REMARK  136  A    between atoms: _324  and  _326
REMARK  137  A    between atoms: _326  and  _327
REMARK  138  A    between atoms: _330  and  _332
REMARK  139  A    between atoms: _332  and  _333
REMARK  140  A    between atoms: _332  and  _335
REMARK  141  A    between atoms: _335  and  _336
REMARK  142  A    between atoms: _339  and  _341
REMARK  143  A    between atoms: _341  and  _342
REMARK  144  A    between atoms: _341  and  _344
REMARK  145  A    between atoms: _344  and  _345
REMARK  146  A    between atoms: _348  and  _350
REMARK  147  A    between atoms: _350  and  _351
REMARK  148  A    between atoms: _350  and  _353
REMARK  149  A    between atoms: _353  and  _354
REMARK  150  A    between atoms: _357  and  _359
REMARK  151  A    between atoms: _359  and  _360
REMARK  152  A    between atoms: _359  and  _362
REMARK  153  A    between atoms: _365  and  _367
REMARK  154  A    between atoms: _367  and  _368
REMARK  155  A    between atoms: _367  and  _370
REMARK  156  A    between atoms: _370  and  _371
REMARK  157  A    between atoms: _371  and  _372
REMARK  158  A    between atoms: _372  and  _373
REMARK  159  A    between atoms: _373  and  _374
REMARK  160  A    between atoms: _378  and  _380
REMARK  161  A    between atoms: _380  and  _381
REMARK  162  A    between atoms: _380  and  _383
REMARK  163  A    between atoms: _383  and  _384
REMARK  164  A    between atoms: _384  and  _385
REMARK  165  A    between atoms: _387  and  _389
REMARK  166  A    between atoms: _389  and  _390
REMARK  167  A    between atoms: _389  and  _392
REMARK  168  A    between atoms: _392  and  _393
REMARK  169  A    between atoms: _396  and  _398
REMARK  170  A    between atoms: _398  and  _399
REMARK  171  A    between atoms: _401  and  _403
REMARK  172  A    between atoms: _403  and  _404
REMARK  173  A    between atoms: _406  and  _408
REMARK  174  A    between atoms: _408  and  _409
REMARK  175  A    between atoms: _408  and  _411
REMARK  176  A    between atoms: _411  and  _412
REMARK  177  A    between atoms: _415  and  _417
REMARK  178  A    between atoms: _417  and  _418
REMARK  179  A    between atoms: _420  and  _422
REMARK  180  A    between atoms: _422  and  _423
REMARK  181  A    between atoms: _425  and  _427
REMARK  182  A    between atoms: _427  and  _428
REMARK  183  A    between atoms: _427  and  _430
REMARK  184  A    between atoms: _430  and  _431
REMARK  185  A    between atoms: _434  and  _436
REMARK  186  A    between atoms: _436  and  _437
REMARK  187  A    between atoms: _436  and  _439
REMARK  188  A    between atoms: _439  and  _440
REMARK  189  A    between atoms: _444  and  _445
REMARK  190  A    between atoms: _450  and  _452
REMARK  191  A    between atoms: _452  and  _453
REMARK  192  A    between atoms: _452  and  _455
REMARK  193  A    between atoms: _455  and  _456
REMARK  194  A    between atoms: _460  and  _461
REMARK  195  A    between atoms: _466  and  _468
REMARK  196  A    between atoms: _468  and  _469
REMARK  197  A    between atoms: _468  and  _471
REMARK  198  A    between atoms: _474  and  _476
REMARK  199  A    between atoms: _476  and  _477
REMARK  200  A    between atoms: _476  and  _479
REMARK  201  A    between atoms: _479  and  _480
REMARK  202  A    between atoms: _485  and  _487
REMARK  203  A    between atoms: _487  and  _488
REMARK  204  A    between atoms: _487  and  _490
REMARK  205  A    between atoms: _490  and  _491
REMARK  206  A    between atoms: _494  and  _496
REMARK  207  A    between atoms: _496  and  _497
REMARK  208  A    between atoms: _496  and  _499
REMARK  209  A    between atoms: _499  and  _500
REMARK  210  A    between atoms: _503  and  _505
REMARK  211  A    between atoms: _505  and  _506
REMARK  212  A    between atoms: _508  and  _510
REMARK  213  A    between atoms: _510  and  _511
REMARK  214  A    between atoms: _510  and  _513
REMARK  215  A    between atoms: _513  and  _514
REMARK  216  A    between atoms: _514  and  _515
REMARK  217  A    between atoms: _515  and  _516
REMARK  218  A    between atoms: _525  and  _527
REMARK  219  A    between atoms: _527  and  _528
REMARK  220  A    between atoms: _527  and  _530
REMARK  221  A    between atoms: _530  and  _531
REMARK                            x       y       z     vdW  Elec       q    Type
REMARK                         _______ _______ _______ _____ _____    ______ ____
ROOT
ATOM      1  O   HOH     1     -13.310 -27.564  11.571  0.00  0.00    +0.000 OA
ENDROOT
TORSDOF 0
REMARK  Name = ../refined-set-2016/4heg/4heg_pocket.pdb
REMARK  221 active torsions:
REMARK  status: ('A' for Active; 'I' for Inactive)
REMARK    1  A    between atoms: _1  and  _3
REMARK    2  A    between atoms: _3  and  _4
REMARK    3  A    between atoms: _3  and  _6
REMARK    4  A    between atoms: _6  and  _7
REMARK    5  A    between atoms: _7  and  _8
REMARK    6  A    between atoms: _13  and  _15
REMARK    7  A    between atoms: _15  and  _16
REMARK    8  A    between atoms: _15  and  _18
REMARK    9  A    between atoms: _18  and  _19
REMARK   10  A    between atoms: _22  and  _24
REMARK   11  A    between atoms: _24  and  _25
REMARK   12  A    between atoms: _24  and  _27
REMARK   13  A    between atoms: _27  and  _28
REMARK   14  A    between atoms: _31  and  _33
REMARK   15  A    between atoms: _33  and  _34
REMARK   16  A    between atoms: _33  and  _36
REMARK   17  A    between atoms: _36  and  _37
REMARK   18  A    between atoms: _40  and  _42
REMARK   19  A    between atoms: _42  and  _43
REMARK   20  A    between atoms: _42  and  _45
REMARK   21  A    between atoms: _45  and  _46
REMARK   22  A    between atoms: _49  and  _51
REMARK   23  A    between atoms: _51  and  _52
REMARK   24  A    between atoms: _54  and  _56
REMARK   25  A    between atoms: _56  and  _57
REMARK   26  A    between atoms: _60  and  _62
REMARK   27  A    between atoms: _62  and  _63
REMARK   28  A    between atoms: _62  and  _65
REMARK   29  A    between atoms: _65  and  _66
REMARK   30  A    between atoms: _69  and  _71
REMARK   31  A    between atoms: _71  and  _72
REMARK   32  A    between atoms: _71  and  _74
REMARK   33  A    between atoms: _74  and  _75
REMARK   34  A    between atoms: _78  and  _80
REMARK   35  A    between atoms: _80  and  _81
REMARK   36  A    between atoms: _80  and  _83
REMARK   37  A    between atoms: _83  and  _84
REMARK   38  A    between atoms: _87  and  _89
REMARK   39  A    between atoms: _89  and  _90
REMARK   40  A    between atoms: _89  and  _92
REMARK   41  A    between atoms: _95  and  _97
REMARK   42  A    between atoms: _97  and  _98
REMARK   43  A    between atoms: _97  and  _100
REMARK   44  A    between atoms: _100  and  _101
REMARK   45  A    between atoms: _101  and  _102
REMARK   46  A    between atoms: _102  and  _103
REMARK   47  A    between atoms: _103  and  _104
REMARK   48  A    between atoms: _108  and  _110
REMARK   49  A    between atoms: _110  and  _111
REMARK   50  A    between atoms: _110  and  _113
REMARK   51  A    between atoms: _113  and  _114
REMARK   52  A    between atoms: _114  and  _115
REMARK   53  A    between atoms: _117  and  _119
REMARK   54  A    between atoms: _119  and  _120
REMARK   55  A    between atoms: _119  and  _122
REMARK   56  A    between atoms: _122  and  _123
REMARK   57  A    between atoms: _126  and  _128
REMARK   58  A    between atoms: _128  and  _129
REMARK   59  A    between atoms: _131  and  _133
REMARK   60  A    between atoms: _133  and  _134
REMARK   61  A    between atoms: _136  and  _138
REMARK   62  A    between atoms: _138  and  _139
REMARK   63  A    between atoms: _138  and  _141
REMARK   64  A    between atoms: _141  and  _142
REMARK   65  A    between atoms: _145  and  _147
REMARK   66  A    between atoms: _147  and  _148
REMARK   67  A    between atoms: _150  and  _152
REMARK   68  A    between atoms: _152  and  _153
REMARK   69  A    between atoms: _155  and  _157
REMARK   70  A    between atoms: _157  and  _158
REMARK   71  A    between atoms: _157  and  _160
REMARK   72  A    between atoms: _160  and  _161
REMARK   73  A    between atoms: _167  and  _169
REMARK   74  A    between atoms: _169  and  _170
REMARK   75  A    between atoms: _169  and  _172
REMARK   76  A    between atoms: _172  and  _173
REMARK   77  A    between atoms: _176  and  _178
REMARK   78  A    between atoms: _178  and  _179
REMARK   79  A    between atoms: _178  and  _181
REMARK   80  A    between atoms: _181  and  _182
REMARK   81  A    between atoms: _185  and  _187
REMARK   82  A    between atoms: _187  and  _188
REMARK   83  A    between atoms: _187  and  _190
REMARK   84  A    between atoms: _190  and  _191
REMARK   85  A    between atoms: _195  and  _196
REMARK   86  A    between atoms: _201  and  _203
REMARK   87  A    between atoms: _203  and  _204
REMARK   88  A    between atoms: _203  and  _206
REMARK   89  A    between atoms: _209  and  _211
REMARK   90  A    between atoms: _211  and  _212
REMARK   91  A    between atoms: _211  and  _214
REMARK   92  A    between atoms: _214  and  _215
REMARK   93  A    between atoms: _220  and  _222
REMARK   94  A    between atoms: _222  and  _223
REMARK   95  A    between atoms: _222  and  _225
REMARK   96  A    between atoms: _225  and  _226
REMARK   97  A    between atoms: _229  and  _231
REMARK   98  A    between atoms: _231  and  _232
REMARK   99  A    between atoms: _231  and  _234
REMARK  100  A    between atoms: _234  and  _235
REMARK  101  A    between atoms: _238  and  _240
REMARK  102  A    between atoms: _240  and  _241
REMARK  103  A    between atoms: _243  and  _245
REMARK  104  A    between atoms: _245  and  _246
REMARK  105  A    between atoms: _245  and  _248
REMARK  106  A    between atoms: _248  and  _249
REMARK  107  A    between atoms: _249  and  _250
REMARK  108  A    between atoms: _250  and  _251
REMARK  109  A    between atoms: _260  and  _262
REMARK  110  A    between atoms: _262  and  _263
REMARK  111  A    between atoms: _262  and  _265
REMARK  112  A    between atoms: _265  and  _266
REMARK  113  A    between atoms: _271  and  _273
REMARK  114  A    between atoms: _273  and  _274
REMARK  115  A    between atoms: _273  and  _276
REMARK  116  A    between atoms: _276  and  _277
REMARK  117  A    between atoms: _277  and  _278
REMARK  118  A    between atoms: _283  and  _285
REMARK  119  A    between atoms: _285  and  _286
REMARK  120  A    between atoms: _285  and  _288
REMARK  121  A    between atoms: _288  and  _289
REMARK  122  A    between atoms: _292  and  _294
REMARK  123  A    between atoms: _294  and  _295
REMARK  124  A    between atoms: _294  and  _297
REMARK  125  A    between atoms: _297  and  _298
REMARK  126  A    between atoms: _301  and  _303
REMARK  127  A    between atoms: _303  and  _304
REMARK  128  A    between atoms: _303  and  _306
REMARK  129  A    between atoms: _306  and  _307
REMARK  130  A    between atoms: _310  and  _312
REMARK  131  A    between atoms: _312  and  _313
REMARK  132  A    between atoms: _312  and  _315
REMARK  133  A    between atoms: _315  and  _316
REMARK  134  A    between atoms: _319  and  _321
REMARK  135  A    between atoms: _321  and  _322
REMARK  136  A    between atoms: _324  and  _326
REMARK  137  A    between atoms: _326  and  _327
REMARK  138  A    between atoms: _330  and  _332
REMARK  139  A    between atoms: _332  and  _333
REMARK  140  A    between atoms: _332  and  _335
REMARK  141  A    between atoms: _335  and  _336
REMARK  142  A    between atoms: _339  and  _341
REMARK  143  A    between atoms: _341  and  _342
REMARK  144  A    between atoms: _341  and  _344
REMARK  145  A    between atoms: _344  and  _345
REMARK  146  A    between atoms: _348  and  _350
REMARK  147  A    between atoms: _350  and  _351
REMARK  148  A    between atoms: _350  and  _353
REMARK  149  A    between atoms: _353  and  _354
REMARK  150  A    between atoms: _357  and  _359
REMARK  151  A    between atoms: _359  and  _360
REMARK  152  A    between atoms: _359  and  _362
REMARK  153  A    between atoms: _365  and  _367
REMARK  154  A    between atoms: _367  and  _368
REMARK  155  A    between atoms: _367  and  _370
REMARK  156  A    between atoms: _370  and  _371
REMARK  157  A    between atoms: _371  and  _372
REMARK  158  A    between atoms: _372  and  _373
REMARK  159  A    between atoms: _373  and  _374
REMARK  160  A    between atoms: _378  and  _380
REMARK  161  A    between atoms: _380  and  _381
REMARK  162  A    between atoms: _380  and  _383
REMARK  163  A    between atoms: _383  and  _384
REMARK  164  A    between atoms: _384  and  _385
REMARK  165  A    between atoms: _387  and  _389
REMARK  166  A    between atoms: _389  and  _390
REMARK  167  A    between atoms: _389  and  _392
REMARK  168  A    between atoms: _392  and  _393
REMARK  169  A    between atoms: _396  and  _398
REMARK  170  A    between atoms: _398  and  _399
REMARK  171  A    between atoms: _401  and  _403
REMARK  172  A    between atoms: _403  and  _404
REMARK  173  A    between atoms: _406  and  _408
REMARK  174  A    between atoms: _408  and  _409
REMARK  175  A    between atoms: _408  and  _411
REMARK  176  A    between atoms: _411  and  _412
REMARK  177  A    between atoms: _415  and  _417
REMARK  178  A    between atoms: _417  and  _418
REMARK  179  A    between atoms: _420  and  _422
REMARK  180  A    between atoms: _422  and  _423
REMARK  181  A    between atoms: _425  and  _427
REMARK  182  A    between atoms: _427  and  _428
REMARK  183  A    between atoms: _427  and  _430
REMARK  184  A    between atoms: _430  and  _431
REMARK  185  A    between atoms: _434  and  _436
REMARK  186  A    between atoms: _436  and  _437
REMARK  187  A    between atoms: _436  and  _439
REMARK  188  A    between atoms: _439  and  _440
REMARK  189  A    between atoms: _444  and  _445
REMARK  190  A    between atoms: _450  and  _452
REMARK  191  A    between atoms: _452  and  _453
REMARK  192  A    between atoms: _452  and  _455
REMARK  193  A    between atoms: _455  and  _456
REMARK  194  A    between atoms: _460  and  _461
REMARK  195  A    between atoms: _466  and  _468
REMARK  196  A    between atoms: _468  and  _469
REMARK  197  A    between atoms: _468  and  _471
REMARK  198  A    between atoms: _474  and  _476
REMARK  199  A    between atoms: _476  and  _477
REMARK  200  A    between atoms: _476  and  _479
REMARK  201  A    between atoms: _479  and  _480
REMARK  202  A    between atoms: _485  and  _487
REMARK  203  A    between atoms: _487  and  _488
REMARK  204  A    between atoms: _487  and  _490
REMARK  205  A    between atoms: _490  and  _491
REMARK  206  A    between atoms: _494  and  _496
REMARK  207  A    between atoms: _496  and  _497
REMARK  208  A    between atoms: _496  and  _499
REMARK  209  A    between atoms: _499  and  _500
REMARK  210  A    between atoms: _503  and  _505
REMARK  211  A    between atoms: _505  and  _506
REMARK  212  A    between atoms: _508  and  _510
REMARK  213  A    between atoms: _510  and  _511
REMARK  214  A    between atoms: _510  and  _513
REMARK  215  A    between atoms: _513  and  _514
REMARK  216  A    between atoms: _514  and  _515
REMARK  217  A    between atoms: _515  and  _516
REMARK  218  A    between atoms: _525  and  _527
REMARK  219  A    between atoms: _527  and  _528
REMARK  220  A    between atoms: _527  and  _530
REMARK  221  A    between atoms: _530  and  _531
REMARK                            x       y       z     vdW  Elec       q    Type
REMARK                         _______ _______ _______ _____ _____    ______ ____
ROOT
ATOM      1  O   HOH     1     -15.919 -27.250  11.956  0.00  0.00    +0.000 OA
ENDROOT
TORSDOF 0
REMARK  Name = ../refined-set-2016/4heg/4heg_pocket.pdb
REMARK  221 active torsions:
REMARK  status: ('A' for Active; 'I' for Inactive)
REMARK    1  A    between atoms: _1  and  _3
REMARK    2  A    between atoms: _3  and  _4
REMARK    3  A    between atoms: _3  and  _6
REMARK    4  A    between atoms: _6  and  _7
REMARK    5  A    between atoms: _7  and  _8
REMARK    6  A    between atoms: _13  and  _15
REMARK    7  A    between atoms: _15  and  _16
REMARK    8  A    between atoms: _15  and  _18
REMARK    9  A    between atoms: _18  and  _19
REMARK   10  A    between atoms: _22  and  _24
REMARK   11  A    between atoms: _24  and  _25
REMARK   12  A    between atoms: _24  and  _27
REMARK   13  A    between atoms: _27  and  _28
REMARK   14  A    between atoms: _31  and  _33
REMARK   15  A    between atoms: _33  and  _34
REMARK   16  A    between atoms: _33  and  _36
REMARK   17  A    between atoms: _36  and  _37
REMARK   18  A    between atoms: _40  and  _42
REMARK   19  A    between atoms: _42  and  _43
REMARK   20  A    between atoms: _42  and  _45
REMARK   21  A    between atoms: _45  and  _46
REMARK   22  A    between atoms: _49  and  _51
REMARK   23  A    between atoms: _51  and  _52
REMARK   24  A    between atoms: _54  and  _56
REMARK   25  A    between atoms: _56  and  _57
REMARK   26  A    between atoms: _60  and  _62
REMARK   27  A    between atoms: _62  and  _63
REMARK   28  A    between atoms: _62  and  _65
REMARK   29  A    between atoms: _65  and  _66
REMARK   30  A    between atoms: _69  and  _71
REMARK   31  A    between atoms: _71  and  _72
REMARK   32  A    between atoms: _71  and  _74
REMARK   33  A    between atoms: _74  and  _75
REMARK   34  A    between atoms: _78  and  _80
REMARK   35  A    between atoms: _80  and  _81
REMARK   36  A    between atoms: _80  and  _83
REMARK   37  A    between atoms: _83  and  _84
REMARK   38  A    between atoms: _87  and  _89
REMARK   39  A    between atoms: _89  and  _90
REMARK   40  A    between atoms: _89  and  _92
REMARK   41  A    between atoms: _95  and  _97
REMARK   42  A    between atoms: _97  and  _98
REMARK   43  A    between atoms: _97  and  _100
REMARK   44  A    between atoms: _100  and  _101
REMARK   45  A    between atoms: _101  and  _102
REMARK   46  A    between atoms: _102  and  _103
REMARK   47  A    between atoms: _103  and  _104
REMARK   48  A    between atoms: _108  and  _110
REMARK   49  A    between atoms: _110  and  _111
REMARK   50  A    between atoms: _110  and  _113
REMARK   51  A    between atoms: _113  and  _114
REMARK   52  A    between atoms: _114  and  _115
REMARK   53  A    between atoms: _117  and  _119
REMARK   54  A    between atoms: _119  and  _120
REMARK   55  A    between atoms: _119  and  _122
REMARK   56  A    between atoms: _122  and  _123
REMARK   57  A    between atoms: _126  and  _128
REMARK   58  A    between atoms: _128  and  _129
REMARK   59  A    between atoms: _131  and  _133
REMARK   60  A    between atoms: _133  and  _134
REMARK   61  A    between atoms: _136  and  _138
REMARK   62  A    between atoms: _138  and  _139
REMARK   63  A    between atoms: _138  and  _141
REMARK   64  A    between atoms: _141  and  _142
REMARK   65  A    between atoms: _145  and  _147
REMARK   66  A    between atoms: _147  and  _148
REMARK   67  A    between atoms: _150  and  _152
REMARK   68  A    between atoms: _152  and  _153
REMARK   69  A    between atoms: _155  and  _157
REMARK   70  A    between atoms: _157  and  _158
REMARK   71  A    between atoms: _157  and  _160
REMARK   72  A    between atoms: _160  and  _161
REMARK   73  A    between atoms: _167  and  _169
REMARK   74  A    between atoms: _169  and  _170
REMARK   75  A    between atoms: _169  and  _172
REMARK   76  A    between atoms: _172  and  _173
REMARK   77  A    between atoms: _176  and  _178
REMARK   78  A    between atoms: _178  and  _179
REMARK   79  A    between atoms: _178  and  _181
REMARK   80  A    between atoms: _181  and  _182
REMARK   81  A    between atoms: _185  and  _187
REMARK   82  A    between atoms: _187  and  _188
REMARK   83  A    between atoms: _187  and  _190
REMARK   84  A    between atoms: _190  and  _191
REMARK   85  A    between atoms: _195  and  _196
REMARK   86  A    between atoms: _201  and  _203
REMARK   87  A    between atoms: _203  and  _204
REMARK   88  A    between atoms: _203  and  _206
REMARK   89  A    between atoms: _209  and  _211
REMARK   90  A    between atoms: _211  and  _212
REMARK   91  A    between atoms: _211  and  _214
REMARK   92  A    between atoms: _214  and  _215
REMARK   93  A    between atoms: _220  and  _222
REMARK   94  A    between atoms: _222  and  _223
REMARK   95  A    between atoms: _222  and  _225
REMARK   96  A    between atoms: _225  and  _226
REMARK   97  A    between atoms: _229  and  _231
REMARK   98  A    between atoms: _231  and  _232
REMARK   99  A    between atoms: _231  and  _234
REMARK  100  A    between atoms: _234  and  _235
REMARK  101  A    between atoms: _238  and  _240
REMARK  102  A    between atoms: _240  and  _241
REMARK  103  A    between atoms: _243  and  _245
REMARK  104  A    between atoms: _245  and  _246
REMARK  105  A    between atoms: _245  and  _248
REMARK  106  A    between atoms: _248  and  _249
REMARK  107  A    between atoms: _249  and  _250
REMARK  108  A    between atoms: _250  and  _251
REMARK  109  A    between atoms: _260  and  _262
REMARK  110  A    between atoms: _262  and  _263
REMARK  111  A    between atoms: _262  and  _265
REMARK  112  A    between atoms: _265  and  _266
REMARK  113  A    between atoms: _271  and  _273
REMARK  114  A    between atoms: _273  and  _274
REMARK  115  A    between atoms: _273  and  _276
REMARK  116  A    between atoms: _276  and  _277
REMARK  117  A    between atoms: _277  and  _278
REMARK  118  A    between atoms: _283  and  _285
REMARK  119  A    between atoms: _285  and  _286
REMARK  120  A    between atoms: _285  and  _288
REMARK  121  A    between atoms: _288  and  _289
REMARK  122  A    between atoms: _292  and  _294
REMARK  123  A    between atoms: _294  and  _295
REMARK  124  A    between atoms: _294  and  _297
REMARK  125  A    between atoms: _297  and  _298
REMARK  126  A    between atoms: _301  and  _303
REMARK  127  A    between atoms: _303  and  _304
REMARK  128  A    between atoms: _303  and  _306
REMARK  129  A    between atoms: _306  and  _307
REMARK  130  A    between atoms: _310  and  _312
REMARK  131  A    between atoms: _312  and  _313
REMARK  132  A    between atoms: _312  and  _315
REMARK  133  A    between atoms: _315  and  _316
REMARK  134  A    between atoms: _319  and  _321
REMARK  135  A    between atoms: _321  and  _322
REMARK  136  A    between atoms: _324  and  _326
REMARK  137  A    between atoms: _326  and  _327
REMARK  138  A    between atoms: _330  and  _332
REMARK  139  A    between atoms: _332  and  _333
REMARK  140  A    between atoms: _332  and  _335
REMARK  141  A    between atoms: _335  and  _336
REMARK  142  A    between atoms: _339  and  _341
REMARK  143  A    between atoms: _341  and  _342
REMARK  144  A    between atoms: _341  and  _344
REMARK  145  A    between atoms: _344  and  _345
REMARK  146  A    between atoms: _348  and  _350
REMARK  147  A    between atoms: _350  and  _351
REMARK  148  A    between atoms: _350  and  _353
REMARK  149  A    between atoms: _353  and  _354
REMARK  150  A    between atoms: _357  and  _359
REMARK  151  A    between atoms: _359  and  _360
REMARK  152  A    between atoms: _359  and  _362
REMARK  153  A    between atoms: _365  and  _367
REMARK  154  A    between atoms: _367  and  _368
REMARK  155  A    between atoms: _367  and  _370
REMARK  156  A    between atoms: _370  and  _371
REMARK  157  A    between atoms: _371  and  _372
REMARK  158  A    between atoms: _372  and  _373
REMARK  159  A    between atoms: _373  and  _374
REMARK  160  A    between atoms: _378  and  _380
REMARK  161  A    between atoms: _380  and  _381
REMARK  162  A    between atoms: _380  and  _383
REMARK  163  A    between atoms: _383  and  _384
REMARK  164  A    between atoms: _384  and  _385
REMARK  165  A    between atoms: _387  and  _389
REMARK  166  A    between atoms: _389  and  _390
REMARK  167  A    between atoms: _389  and  _392
REMARK  168  A    between atoms: _392  and  _393
REMARK  169  A    between atoms: _396  and  _398
REMARK  170  A    between atoms: _398  and  _399
REMARK  171  A    between atoms: _401  and  _403
REMARK  172  A    between atoms: _403  and  _404
REMARK  173  A    between atoms: _406  and  _408
REMARK  174  A    between atoms: _408  and  _409
REMARK  175  A    between atoms: _408  and  _411
REMARK  176  A    between atoms: _411  and  _412
REMARK  177  A    between atoms: _415  and  _417
REMARK  178  A    between atoms: _417  and  _418
REMARK  179  A    between atoms: _420  and  _422
REMARK  180  A    between atoms: _422  and  _423
REMARK  181  A    between atoms: _425  and  _427
REMARK  182  A    between atoms: _427  and  _428
REMARK  183  A    between atoms: _427  and  _430
REMARK  184  A    between atoms: _430  and  _431
REMARK  185  A    between atoms: _434  and  _436
REMARK  186  A    between atoms: _436  and  _437
REMARK  187  A    between atoms: _436  and  _439
REMARK  188  A    between atoms: _439  and  _440
REMARK  189  A    between atoms: _444  and  _445
REMARK  190  A    between atoms: _450  and  _452
REMARK  191  A    between atoms: _452  and  _453
REMARK  192  A    between atoms: _452  and  _455
REMARK  193  A    between atoms: _455  and  _456
REMARK  194  A    between atoms: _460  and  _461
REMARK  195  A    between atoms: _466  and  _468
REMARK  196  A    between atoms: _468  and  _469
REMARK  197  A    between atoms: _468  and  _471
REMARK  198  A    between atoms: _474  and  _476
REMARK  199  A    between atoms: _476  and  _477
REMARK  200  A    between atoms: _476  and  _479
REMARK  201  A    between atoms: _479  and  _480
REMARK  202  A    between atoms: _485  and  _487
REMARK  203  A    between atoms: _487  and  _488
REMARK  204  A    between atoms: _487  and  _490
REMARK  205  A    between atoms: _490  and  _491
REMARK  206  A    between atoms: _494  and  _496
REMARK  207  A    between atoms: _496  and  _497
REMARK  208  A    between atoms: _496  and  _499
REMARK  209  A    between atoms: _499  and  _500
REMARK  210  A    between atoms: _503  and  _505
REMARK  211  A    between atoms: _505  and  _506
REMARK  212  A    between atoms: _508  and  _510
REMARK  213  A    between atoms: _510  and  _511
REMARK  214  A    between atoms: _510  and  _513
REMARK  215  A    between atoms: _513  and  _514
REMARK  216  A    between atoms: _514  and  _515
REMARK  217  A    between atoms: _515  and  _516
REMARK  218  A    between atoms: _525  and  _527
REMARK  219  A    between atoms: _527  and  _528
REMARK  220  A    between atoms: _527  and  _530
REMARK  221  A    between atoms: _530  and  _531
REMARK                            x       y       z     vdW  Elec       q    Type
REMARK                         _______ _______ _______ _____ _____    ______ ____
ROOT
ATOM      1  O   HOH     1     -22.315 -27.303  25.446  0.00  0.00    +0.000 OA
ENDROOT
TORSDOF 0
REMARK  Name = ../refined-set-2016/4heg/4heg_pocket.pdb
REMARK  221 active torsions:
REMARK  status: ('A' for Active; 'I' for Inactive)
REMARK    1  A    between atoms: _1  and  _3
REMARK    2  A    between atoms: _3  and  _4
REMARK    3  A    between atoms: _3  and  _6
REMARK    4  A    between atoms: _6  and  _7
REMARK    5  A    between atoms: _7  and  _8
REMARK    6  A    between atoms: _13  and  _15
REMARK    7  A    between atoms: _15  and  _16
REMARK    8  A    between atoms: _15  and  _18
REMARK    9  A    between atoms: _18  and  _19
REMARK   10  A    between atoms: _22  and  _24
REMARK   11  A    between atoms: _24  and  _25
REMARK   12  A    between atoms: _24  and  _27
REMARK   13  A    between atoms: _27  and  _28
REMARK   14  A    between atoms: _31  and  _33
REMARK   15  A    between atoms: _33  and  _34
REMARK   16  A    between atoms: _33  and  _36
REMARK   17  A    between atoms: _36  and  _37
REMARK   18  A    between atoms: _40  and  _42
REMARK   19  A    between atoms: _42  and  _43
REMARK   20  A    between atoms: _42  and  _45
REMARK   21  A    between atoms: _45  and  _46
REMARK   22  A    between atoms: _49  and  _51
REMARK   23  A    between atoms: _51  and  _52
REMARK   24  A    between atoms: _54  and  _56
REMARK   25  A    between atoms: _56  and  _57
REMARK   26  A    between atoms: _60  and  _62
REMARK   27  A    between atoms: _62  and  _63
REMARK   28  A    between atoms: _62  and  _65
REMARK   29  A    between atoms: _65  and  _66
REMARK   30  A    between atoms: _69  and  _71
REMARK   31  A    between atoms: _71  and  _72
REMARK   32  A    between atoms: _71  and  _74
REMARK   33  A    between atoms: _74  and  _75
REMARK   34  A    between atoms: _78  and  _80
REMARK   35  A    between atoms: _80  and  _81
REMARK   36  A    between atoms: _80  and  _83
REMARK   37  A    between atoms: _83  and  _84
REMARK   38  A    between atoms: _87  and  _89
REMARK   39  A    between atoms: _89  and  _90
REMARK   40  A    between atoms: _89  and  _92
REMARK   41  A    between atoms: _95  and  _97
REMARK   42  A    between atoms: _97  and  _98
REMARK   43  A    between atoms: _97  and  _100
REMARK   44  A    between atoms: _100  and  _101
REMARK   45  A    between atoms: _101  and  _102
REMARK   46  A    between atoms: _102  and  _103
REMARK   47  A    between atoms: _103  and  _104
REMARK   48  A    between atoms: _108  and  _110
REMARK   49  A    between atoms: _110  and  _111
REMARK   50  A    between atoms: _110  and  _113
REMARK   51  A    between atoms: _113  and  _114
REMARK   52  A    between atoms: _114  and  _115
REMARK   53  A    between atoms: _117  and  _119
REMARK   54  A    between atoms: _119  and  _120
REMARK   55  A    between atoms: _119  and  _122
REMARK   56  A    between atoms: _122  and  _123
REMARK   57  A    between atoms: _126  and  _128
REMARK   58  A    between atoms: _128  and  _129
REMARK   59  A    between atoms: _131  and  _133
REMARK   60  A    between atoms: _133  and  _134
REMARK   61  A    between atoms: _136  and  _138
REMARK   62  A    between atoms: _138  and  _139
REMARK   63  A    between atoms: _138  and  _141
REMARK   64  A    between atoms: _141  and  _142
REMARK   65  A    between atoms: _145  and  _147
REMARK   66  A    between atoms: _147  and  _148
REMARK   67  A    between atoms: _150  and  _152
REMARK   68  A    between atoms: _152  and  _153
REMARK   69  A    between atoms: _155  and  _157
REMARK   70  A    between atoms: _157  and  _158
REMARK   71  A    between atoms: _157  and  _160
REMARK   72  A    between atoms: _160  and  _161
REMARK   73  A    between atoms: _167  and  _169
REMARK   74  A    between atoms: _169  and  _170
REMARK   75  A    between atoms: _169  and  _172
REMARK   76  A    between atoms: _172  and  _173
REMARK   77  A    between atoms: _176  and  _178
REMARK   78  A    between atoms: _178  and  _179
REMARK   79  A    between atoms: _178  and  _181
REMARK   80  A    between atoms: _181  and  _182
REMARK   81  A    between atoms: _185  and  _187
REMARK   82  A    between atoms: _187  and  _188
REMARK   83  A    between atoms: _187  and  _190
REMARK   84  A    between atoms: _190  and  _191
REMARK   85  A    between atoms: _195  and  _196
REMARK   86  A    between atoms: _201  and  _203
REMARK   87  A    between atoms: _203  and  _204
REMARK   88  A    between atoms: _203  and  _206
REMARK   89  A    between atoms: _209  and  _211
REMARK   90  A    between atoms: _211  and  _212
REMARK   91  A    between atoms: _211  and  _214
REMARK   92  A    between atoms: _214  and  _215
REMARK   93  A    between atoms: _220  and  _222
REMARK   94  A    between atoms: _222  and  _223
REMARK   95  A    between atoms: _222  and  _225
REMARK   96  A    between atoms: _225  and  _226
REMARK   97  A    between atoms: _229  and  _231
REMARK   98  A    between atoms: _231  and  _232
REMARK   99  A    between atoms: _231  and  _234
REMARK  100  A    between atoms: _234  and  _235
REMARK  101  A    between atoms: _238  and  _240
REMARK  102  A    between atoms: _240  and  _241
REMARK  103  A    between atoms: _243  and  _245
REMARK  104  A    between atoms: _245  and  _246
REMARK  105  A    between atoms: _245  and  _248
REMARK  106  A    between atoms: _248  and  _249
REMARK  107  A    between atoms: _249  and  _250
REMARK  108  A    between atoms: _250  and  _251
REMARK  109  A    between atoms: _260  and  _262
REMARK  110  A    between atoms: _262  and  _263
REMARK  111  A    between atoms: _262  and  _265
REMARK  112  A    between atoms: _265  and  _266
REMARK  113  A    between atoms: _271  and  _273
REMARK  114  A    between atoms: _273  and  _274
REMARK  115  A    between atoms: _273  and  _276
REMARK  116  A    between atoms: _276  and  _277
REMARK  117  A    between atoms: _277  and  _278
REMARK  118  A    between atoms: _283  and  _285
REMARK  119  A    between atoms: _285  and  _286
REMARK  120  A    between atoms: _285  and  _288
REMARK  121  A    between atoms: _288  and  _289
REMARK  122  A    between atoms: _292  and  _294
REMARK  123  A    between atoms: _294  and  _295
REMARK  124  A    between atoms: _294  and  _297
REMARK  125  A    between atoms: _297  and  _298
REMARK  126  A    between atoms: _301  and  _303
REMARK  127  A    between atoms: _303  and  _304
REMARK  128  A    between atoms: _303  and  _306
REMARK  129  A    between atoms: _306  and  _307
REMARK  130  A    between atoms: _310  and  _312
REMARK  131  A    between atoms: _312  and  _313
REMARK  132  A    between atoms: _312  and  _315
REMARK  133  A    between atoms: _315  and  _316
REMARK  134  A    between atoms: _319  and  _321
REMARK  135  A    between atoms: _321  and  _322
REMARK  136  A    between atoms: _324  and  _326
REMARK  137  A    between atoms: _326  and  _327
REMARK  138  A    between atoms: _330  and  _332
REMARK  139  A    between atoms: _332  and  _333
REMARK  140  A    between atoms: _332  and  _335
REMARK  141  A    between atoms: _335  and  _336
REMARK  142  A    between atoms: _339  and  _341
REMARK  143  A    between atoms: _341  and  _342
REMARK  144  A    between atoms: _341  and  _344
REMARK  145  A    between atoms: _344  and  _345
REMARK  146  A    between atoms: _348  and  _350
REMARK  147  A    between atoms: _350  and  _351
REMARK  148  A    between atoms: _350  and  _353
REMARK  149  A    between atoms: _353  and  _354
REMARK  150  A    between atoms: _357  and  _359
REMARK  151  A    between atoms: _359  and  _360
REMARK  152  A    between atoms: _359  and  _362
REMARK  153  A    between atoms: _365  and  _367
REMARK  154  A    between atoms: _367  and  _368
REMARK  155  A    between atoms: _367  and  _370
REMARK  156  A    between atoms: _370  and  _371
REMARK  157  A    between atoms: _371  and  _372
REMARK  158  A    between atoms: _372  and  _373
REMARK  159  A    between atoms: _373  and  _374
REMARK  160  A    between atoms: _378  and  _380
REMARK  161  A    between atoms: _380  and  _381
REMARK  162  A    between atoms: _380  and  _383
REMARK  163  A    between atoms: _383  and  _384
REMARK  164  A    between atoms: _384  and  _385
REMARK  165  A    between atoms: _387  and  _389
REMARK  166  A    between atoms: _389  and  _390
REMARK  167  A    between atoms: _389  and  _392
REMARK  168  A    between atoms: _392  and  _393
REMARK  169  A    between atoms: _396  and  _398
REMARK  170  A    between atoms: _398  and  _399
REMARK  171  A    between atoms: _401  and  _403
REMARK  172  A    between atoms: _403  and  _404
REMARK  173  A    between atoms: _406  and  _408
REMARK  174  A    between atoms: _408  and  _409
REMARK  175  A    between atoms: _408  and  _411
REMARK  176  A    between atoms: _411  and  _412
REMARK  177  A    between atoms: _415  and  _417
REMARK  178  A    between atoms: _417  and  _418
REMARK  179  A    between atoms: _420  and  _422
REMARK  180  A    between atoms: _422  and  _423
REMARK  181  A    between atoms: _425  and  _427
REMARK  182  A    between atoms: _427  and  _428
REMARK  183  A    between atoms: _427  and  _430
REMARK  184  A    between atoms: _430  and  _431
REMARK  185  A    between atoms: _434  and  _436
REMARK  186  A    between atoms: _436  and  _437
REMARK  187  A    between atoms: _436  and  _439
REMARK  188  A    between atoms: _439  and  _440
REMARK  189  A    between atoms: _444  and  _445
REMARK  190  A    between atoms: _450  and  _452
REMARK  191  A    between atoms: _452  and  _453
REMARK  192  A    between atoms: _452  and  _455
REMARK  193  A    between atoms: _455  and  _456
REMARK  194  A    between atoms: _460  and  _461
REMARK  195  A    between atoms: _466  and  _468
REMARK  196  A    between atoms: _468  and  _469
REMARK  197  A    between atoms: _468  and  _471
REMARK  198  A    between atoms: _474  and  _476
REMARK  199  A    between atoms: _476  and  _477
REMARK  200  A    between atoms: _476  and  _479
REMARK  201  A    between atoms: _479  and  _480
REMARK  202  A    between atoms: _485  and  _487
REMARK  203  A    between atoms: _487  and  _488
REMARK  204  A    between atoms: _487  and  _490
REMARK  205  A    between atoms: _490  and  _491
REMARK  206  A    between atoms: _494  and  _496
REMARK  207  A    between atoms: _496  and  _497
REMARK  208  A    between atoms: _496  and  _499
REMARK  209  A    between atoms: _499  and  _500
REMARK  210  A    between atoms: _503  and  _505
REMARK  211  A    between atoms: _505  and  _506
REMARK  212  A    between atoms: _508  and  _510
REMARK  213  A    between atoms: _510  and  _511
REMARK  214  A    between atoms: _510  and  _513
REMARK  215  A    between atoms: _513  and  _514
REMARK  216  A    between atoms: _514  and  _515
REMARK  217  A    between atoms: _515  and  _516
REMARK  218  A    between atoms: _525  and  _527
REMARK  219  A    between atoms: _527  and  _528
REMARK  220  A    between atoms: _527  and  _530
REMARK  221  A    between atoms: _530  and  _531
REMARK                            x       y       z     vdW  Elec       q    Type
REMARK                         _______ _______ _______ _____ _____    ______ ____
ROOT
ATOM      1  O   HOH     1     -22.219 -27.296  18.489  0.00  0.00    +0.000 OA
ENDROOT
TORSDOF 0
REMARK  Name = ../refined-set-2016/4heg/4heg_pocket.pdb
REMARK  221 active torsions:
REMARK  status: ('A' for Active; 'I' for Inactive)
REMARK    1  A    between atoms: _1  and  _3
REMARK    2  A    between atoms: _3  and  _4
REMARK    3  A    between atoms: _3  and  _6
REMARK    4  A    between atoms: _6  and  _7
REMARK    5  A    between atoms: _7  and  _8
REMARK    6  A    between atoms: _13  and  _15
REMARK    7  A    between atoms: _15  and  _16
REMARK    8  A    between atoms: _15  and  _18
REMARK    9  A    between atoms: _18  and  _19
REMARK   10  A    between atoms: _22  and  _24
REMARK   11  A    between atoms: _24  and  _25
REMARK   12  A    between atoms: _24  and  _27
REMARK   13  A    between atoms: _27  and  _28
REMARK   14  A    between atoms: _31  and  _33
REMARK   15  A    between atoms: _33  and  _34
REMARK   16  A    between atoms: _33  and  _36
REMARK   17  A    between atoms: _36  and  _37
REMARK   18  A    between atoms: _40  and  _42
REMARK   19  A    between atoms: _42  and  _43
REMARK   20  A    between atoms: _42  and  _45
REMARK   21  A    between atoms: _45  and  _46
REMARK   22  A    between atoms: _49  and  _51
REMARK   23  A    between atoms: _51  and  _52
REMARK   24  A    between atoms: _54  and  _56
REMARK   25  A    between atoms: _56  and  _57
REMARK   26  A    between atoms: _60  and  _62
REMARK   27  A    between atoms: _62  and  _63
REMARK   28  A    between atoms: _62  and  _65
REMARK   29  A    between atoms: _65  and  _66
REMARK   30  A    between atoms: _69  and  _71
REMARK   31  A    between atoms: _71  and  _72
REMARK   32  A    between atoms: _71  and  _74
REMARK   33  A    between atoms: _74  and  _75
REMARK   34  A    between atoms: _78  and  _80
REMARK   35  A    between atoms: _80  and  _81
REMARK   36  A    between atoms: _80  and  _83
REMARK   37  A    between atoms: _83  and  _84
REMARK   38  A    between atoms: _87  and  _89
REMARK   39  A    between atoms: _89  and  _90
REMARK   40  A    between atoms: _89  and  _92
REMARK   41  A    between atoms: _95  and  _97
REMARK   42  A    between atoms: _97  and  _98
REMARK   43  A    between atoms: _97  and  _100
REMARK   44  A    between atoms: _100  and  _101
REMARK   45  A    between atoms: _101  and  _102
REMARK   46  A    between atoms: _102  and  _103
REMARK   47  A    between atoms: _103  and  _104
REMARK   48  A    between atoms: _108  and  _110
REMARK   49  A    between atoms: _110  and  _111
REMARK   50  A    between atoms: _110  and  _113
REMARK   51  A    between atoms: _113  and  _114
REMARK   52  A    between atoms: _114  and  _115
REMARK   53  A    between atoms: _117  and  _119
REMARK   54  A    between atoms: _119  and  _120
REMARK   55  A    between atoms: _119  and  _122
REMARK   56  A    between atoms: _122  and  _123
REMARK   57  A    between atoms: _126  and  _128
REMARK   58  A    between atoms: _128  and  _129
REMARK   59  A    between atoms: _131  and  _133
REMARK   60  A    between atoms: _133  and  _134
REMARK   61  A    between atoms: _136  and  _138
REMARK   62  A    between atoms: _138  and  _139
REMARK   63  A    between atoms: _138  and  _141
REMARK   64  A    between atoms: _141  and  _142
REMARK   65  A    between atoms: _145  and  _147
REMARK   66  A    between atoms: _147  and  _148
REMARK   67  A    between atoms: _150  and  _152
REMARK   68  A    between atoms: _152  and  _153
REMARK   69  A    between atoms: _155  and  _157
REMARK   70  A    between atoms: _157  and  _158
REMARK   71  A    between atoms: _157  and  _160
REMARK   72  A    between atoms: _160  and  _161
REMARK   73  A    between atoms: _167  and  _169
REMARK   74  A    between atoms: _169  and  _170
REMARK   75  A    between atoms: _169  and  _172
REMARK   76  A    between atoms: _172  and  _173
REMARK   77  A    between atoms: _176  and  _178
REMARK   78  A    between atoms: _178  and  _179
REMARK   79  A    between atoms: _178  and  _181
REMARK   80  A    between atoms: _181  and  _182
REMARK   81  A    between atoms: _185  and  _187
REMARK   82  A    between atoms: _187  and  _188
REMARK   83  A    between atoms: _187  and  _190
REMARK   84  A    between atoms: _190  and  _191
REMARK   85  A    between atoms: _195  and  _196
REMARK   86  A    between atoms: _201  and  _203
REMARK   87  A    between atoms: _203  and  _204
REMARK   88  A    between atoms: _203  and  _206
REMARK   89  A    between atoms: _209  and  _211
REMARK   90  A    between atoms: _211  and  _212
REMARK   91  A    between atoms: _211  and  _214
REMARK   92  A    between atoms: _214  and  _215
REMARK   93  A    between atoms: _220  and  _222
REMARK   94  A    between atoms: _222  and  _223
REMARK   95  A    between atoms: _222  and  _225
REMARK   96  A    between atoms: _225  and  _226
REMARK   97  A    between atoms: _229  and  _231
REMARK   98  A    between atoms: _231  and  _232
REMARK   99  A    between atoms: _231  and  _234
REMARK  100  A    between atoms: _234  and  _235
REMARK  101  A    between atoms: _238  and  _240
REMARK  102  A    between atoms: _240  and  _241
REMARK  103  A    between atoms: _243  and  _245
REMARK  104  A    between atoms: _245  and  _246
REMARK  105  A    between atoms: _245  and  _248
REMARK  106  A    between atoms: _248  and  _249
REMARK  107  A    between atoms: _249  and  _250
REMARK  108  A    between atoms: _250  and  _251
REMARK  109  A    between atoms: _260  and  _262
REMARK  110  A    between atoms: _262  and  _263
REMARK  111  A    between atoms: _262  and  _265
REMARK  112  A    between atoms: _265  and  _266
REMARK  113  A    between atoms: _271  and  _273
REMARK  114  A    between atoms: _273  and  _274
REMARK  115  A    between atoms: _273  and  _276
REMARK  116  A    between atoms: _276  and  _277
REMARK  117  A    between atoms: _277  and  _278
REMARK  118  A    between atoms: _283  and  _285
REMARK  119  A    between atoms: _285  and  _286
REMARK  120  A    between atoms: _285  and  _288
REMARK  121  A    between atoms: _288  and  _289
REMARK  122  A    between atoms: _292  and  _294
REMARK  123  A    between atoms: _294  and  _295
REMARK  124  A    between atoms: _294  and  _297
REMARK  125  A    between atoms: _297  and  _298
REMARK  126  A    between atoms: _301  and  _303
REMARK  127  A    between atoms: _303  and  _304
REMARK  128  A    between atoms: _303  and  _306
REMARK  129  A    between atoms: _306  and  _307
REMARK  130  A    between atoms: _310  and  _312
REMARK  131  A    between atoms: _312  and  _313
REMARK  132  A    between atoms: _312  and  _315
REMARK  133  A    between atoms: _315  and  _316
REMARK  134  A    between atoms: _319  and  _321
REMARK  135  A    between atoms: _321  and  _322
REMARK  136  A    between atoms: _324  and  _326
REMARK  137  A    between atoms: _326  and  _327
REMARK  138  A    between atoms: _330  and  _332
REMARK  139  A    between atoms: _332  and  _333
REMARK  140  A    between atoms: _332  and  _335
REMARK  141  A    between atoms: _335  and  _336
REMARK  142  A    between atoms: _339  and  _341
REMARK  143  A    between atoms: _341  and  _342
REMARK  144  A    between atoms: _341  and  _344
REMARK  145  A    between atoms: _344  and  _345
REMARK  146  A    between atoms: _348  and  _350
REMARK  147  A    between atoms: _350  and  _351
REMARK  148  A    between atoms: _350  and  _353
REMARK  149  A    between atoms: _353  and  _354
REMARK  150  A    between atoms: _357  and  _359
REMARK  151  A    between atoms: _359  and  _360
REMARK  152  A    between atoms: _359  and  _362
REMARK  153  A    between atoms: _365  and  _367
REMARK  154  A    between atoms: _367  and  _368
REMARK  155  A    between atoms: _367  and  _370
REMARK  156  A    between atoms: _370  and  _371
REMARK  157  A    between atoms: _371  and  _372
REMARK  158  A    between atoms: _372  and  _373
REMARK  159  A    between atoms: _373  and  _374
REMARK  160  A    between atoms: _378  and  _380
REMARK  161  A    between atoms: _380  and  _381
REMARK  162  A    between atoms: _380  and  _383
REMARK  163  A    between atoms: _383  and  _384
REMARK  164  A    between atoms: _384  and  _385
REMARK  165  A    between atoms: _387  and  _389
REMARK  166  A    between atoms: _389  and  _390
REMARK  167  A    between atoms: _389  and  _392
REMARK  168  A    between atoms: _392  and  _393
REMARK  169  A    between atoms: _396  and  _398
REMARK  170  A    between atoms: _398  and  _399
REMARK  171  A    between atoms: _401  and  _403
REMARK  172  A    between atoms: _403  and  _404
REMARK  173  A    between atoms: _406  and  _408
REMARK  174  A    between atoms: _408  and  _409
REMARK  175  A    between atoms: _408  and  _411
REMARK  176  A    between atoms: _411  and  _412
REMARK  177  A    between atoms: _415  and  _417
REMARK  178  A    between atoms: _417  and  _418
REMARK  179  A    between atoms: _420  and  _422
REMARK  180  A    between atoms: _422  and  _423
REMARK  181  A    between atoms: _425  and  _427
REMARK  182  A    between atoms: _427  and  _428
REMARK  183  A    between atoms: _427  and  _430
REMARK  184  A    between atoms: _430  and  _431
REMARK  185  A    between atoms: _434  and  _436
REMARK  186  A    between atoms: _436  and  _437
REMARK  187  A    between atoms: _436  and  _439
REMARK  188  A    between atoms: _439  and  _440
REMARK  189  A    between atoms: _444  and  _445
REMARK  190  A    between atoms: _450  and  _452
REMARK  191  A    between atoms: _452  and  _453
REMARK  192  A    between atoms: _452  and  _455
REMARK  193  A    between atoms: _455  and  _456
REMARK  194  A    between atoms: _460  and  _461
REMARK  195  A    between atoms: _466  and  _468
REMARK  196  A    between atoms: _468  and  _469
REMARK  197  A    between atoms: _468  and  _471
REMARK  198  A    between atoms: _474  and  _476
REMARK  199  A    between atoms: _476  and  _477
REMARK  200  A    between atoms: _476  and  _479
REMARK  201  A    between atoms: _479  and  _480
REMARK  202  A    between atoms: _485  and  _487
REMARK  203  A    between atoms: _487  and  _488
REMARK  204  A    between atoms: _487  and  _490
REMARK  205  A    between atoms: _490  and  _491
REMARK  206  A    between atoms: _494  and  _496
REMARK  207  A    between atoms: _496  and  _497
REMARK  208  A    between atoms: _496  and  _499
REMARK  209  A    between atoms: _499  and  _500
REMARK  210  A    between atoms: _503  and  _505
REMARK  211  A    between atoms: _505  and  _506
REMARK  212  A    between atoms: _508  and  _510
REMARK  213  A    between atoms: _510  and  _511
REMARK  214  A    between atoms: _510  and  _513
REMARK  215  A    between atoms: _513  and  _514
REMARK  216  A    between atoms: _514  and  _515
REMARK  217  A    between atoms: _515  and  _516
REMARK  218  A    between atoms: _525  and  _527
REMARK  219  A    between atoms: _527  and  _528
REMARK  220  A    between atoms: _527  and  _530
REMARK  221  A    between atoms: _530  and  _531
REMARK                            x       y       z     vdW  Elec       q    Type
REMARK                         _______ _______ _______ _____ _____    ______ ____
ROOT
ATOM      1  O   HOH     1     -18.001 -28.673  16.744  0.00  0.00    +0.000 OA
ENDROOT
TORSDOF 0
REMARK  Name = ../refined-set-2016/4heg/4heg_pocket.pdb
REMARK  221 active torsions:
REMARK  status: ('A' for Active; 'I' for Inactive)
REMARK    1  A    between atoms: _1  and  _3
REMARK    2  A    between atoms: _3  and  _4
REMARK    3  A    between atoms: _3  and  _6
REMARK    4  A    between atoms: _6  and  _7
REMARK    5  A    between atoms: _7  and  _8
REMARK    6  A    between atoms: _13  and  _15
REMARK    7  A    between atoms: _15  and  _16
REMARK    8  A    between atoms: _15  and  _18
REMARK    9  A    between atoms: _18  and  _19
REMARK   10  A    between atoms: _22  and  _24
REMARK   11  A    between atoms: _24  and  _25
REMARK   12  A    between atoms: _24  and  _27
REMARK   13  A    between atoms: _27  and  _28
REMARK   14  A    between atoms: _31  and  _33
REMARK   15  A    between atoms: _33  and  _34
REMARK   16  A    between atoms: _33  and  _36
REMARK   17  A    between atoms: _36  and  _37
REMARK   18  A    between atoms: _40  and  _42
REMARK   19  A    between atoms: _42  and  _43
REMARK   20  A    between atoms: _42  and  _45
REMARK   21  A    between atoms: _45  and  _46
REMARK   22  A    between atoms: _49  and  _51
REMARK   23  A    between atoms: _51  and  _52
REMARK   24  A    between atoms: _54  and  _56
REMARK   25  A    between atoms: _56  and  _57
REMARK   26  A    between atoms: _60  and  _62
REMARK   27  A    between atoms: _62  and  _63
REMARK   28  A    between atoms: _62  and  _65
REMARK   29  A    between atoms: _65  and  _66
REMARK   30  A    between atoms: _69  and  _71
REMARK   31  A    between atoms: _71  and  _72
REMARK   32  A    between atoms: _71  and  _74
REMARK   33  A    between atoms: _74  and  _75
REMARK   34  A    between atoms: _78  and  _80
REMARK   35  A    between atoms: _80  and  _81
REMARK   36  A    between atoms: _80  and  _83
REMARK   37  A    between atoms: _83  and  _84
REMARK   38  A    between atoms: _87  and  _89
REMARK   39  A    between atoms: _89  and  _90
REMARK   40  A    between atoms: _89  and  _92
REMARK   41  A    between atoms: _95  and  _97
REMARK   42  A    between atoms: _97  and  _98
REMARK   43  A    between atoms: _97  and  _100
REMARK   44  A    between atoms: _100  and  _101
REMARK   45  A    between atoms: _101  and  _102
REMARK   46  A    between atoms: _102  and  _103
REMARK   47  A    between atoms: _103  and  _104
REMARK   48  A    between atoms: _108  and  _110
REMARK   49  A    between atoms: _110  and  _111
REMARK   50  A    between atoms: _110  and  _113
REMARK   51  A    between atoms: _113  and  _114
REMARK   52  A    between atoms: _114  and  _115
REMARK   53  A    between atoms: _117  and  _119
REMARK   54  A    between atoms: _119  and  _120
REMARK   55  A    between atoms: _119  and  _122
REMARK   56  A    between atoms: _122  and  _123
REMARK   57  A    between atoms: _126  and  _128
REMARK   58  A    between atoms: _128  and  _129
REMARK   59  A    between atoms: _131  and  _133
REMARK   60  A    between atoms: _133  and  _134
REMARK   61  A    between atoms: _136  and  _138
REMARK   62  A    between atoms: _138  and  _139
REMARK   63  A    between atoms: _138  and  _141
REMARK   64  A    between atoms: _141  and  _142
REMARK   65  A    between atoms: _145  and  _147
REMARK   66  A    between atoms: _147  and  _148
REMARK   67  A    between atoms: _150  and  _152
REMARK   68  A    between atoms: _152  and  _153
REMARK   69  A    between atoms: _155  and  _157
REMARK   70  A    between atoms: _157  and  _158
REMARK   71  A    between atoms: _157  and  _160
REMARK   72  A    between atoms: _160  and  _161
REMARK   73  A    between atoms: _167  and  _169
REMARK   74  A    between atoms: _169  and  _170
REMARK   75  A    between atoms: _169  and  _172
REMARK   76  A    between atoms: _172  and  _173
REMARK   77  A    between atoms: _176  and  _178
REMARK   78  A    between atoms: _178  and  _179
REMARK   79  A    between atoms: _178  and  _181
REMARK   80  A    between atoms: _181  and  _182
REMARK   81  A    between atoms: _185  and  _187
REMARK   82  A    between atoms: _187  and  _188
REMARK   83  A    between atoms: _187  and  _190
REMARK   84  A    between atoms: _190  and  _191
REMARK   85  A    between atoms: _195  and  _196
REMARK   86  A    between atoms: _201  and  _203
REMARK   87  A    between atoms: _203  and  _204
REMARK   88  A    between atoms: _203  and  _206
REMARK   89  A    between atoms: _209  and  _211
REMARK   90  A    between atoms: _211  and  _212
REMARK   91  A    between atoms: _211  and  _214
REMARK   92  A    between atoms: _214  and  _215
REMARK   93  A    between atoms: _220  and  _222
REMARK   94  A    between atoms: _222  and  _223
REMARK   95  A    between atoms: _222  and  _225
REMARK   96  A    between atoms: _225  and  _226
REMARK   97  A    between atoms: _229  and  _231
REMARK   98  A    between atoms: _231  and  _232
REMARK   99  A    between atoms: _231  and  _234
REMARK  100  A    between atoms: _234  and  _235
REMARK  101  A    between atoms: _238  and  _240
REMARK  102  A    between atoms: _240  and  _241
REMARK  103  A    between atoms: _243  and  _245
REMARK  104  A    between atoms: _245  and  _246
REMARK  105  A    between atoms: _245  and  _248
REMARK  106  A    between atoms: _248  and  _249
REMARK  107  A    between atoms: _249  and  _250
REMARK  108  A    between atoms: _250  and  _251
REMARK  109  A    between atoms: _260  and  _262
REMARK  110  A    between atoms: _262  and  _263
REMARK  111  A    between atoms: _262  and  _265
REMARK  112  A    between atoms: _265  and  _266
REMARK  113  A    between atoms: _271  and  _273
REMARK  114  A    between atoms: _273  and  _274
REMARK  115  A    between atoms: _273  and  _276
REMARK  116  A    between atoms: _276  and  _277
REMARK  117  A    between atoms: _277  and  _278
REMARK  118  A    between atoms: _283  and  _285
REMARK  119  A    between atoms: _285  and  _286
REMARK  120  A    between atoms: _285  and  _288
REMARK  121  A    between atoms: _288  and  _289
REMARK  122  A    between atoms: _292  and  _294
REMARK  123  A    between atoms: _294  and  _295
REMARK  124  A    between atoms: _294  and  _297
REMARK  125  A    between atoms: _297  and  _298
REMARK  126  A    between atoms: _301  and  _303
REMARK  127  A    between atoms: _303  and  _304
REMARK  128  A    between atoms: _303  and  _306
REMARK  129  A    between atoms: _306  and  _307
REMARK  130  A    between atoms: _310  and  _312
REMARK  131  A    between atoms: _312  and  _313
REMARK  132  A    between atoms: _312  and  _315
REMARK  133  A    between atoms: _315  and  _316
REMARK  134  A    between atoms: _319  and  _321
REMARK  135  A    between atoms: _321  and  _322
REMARK  136  A    between atoms: _324  and  _326
REMARK  137  A    between atoms: _326  and  _327
REMARK  138  A    between atoms: _330  and  _332
REMARK  139  A    between atoms: _332  and  _333
REMARK  140  A    between atoms: _332  and  _335
REMARK  141  A    between atoms: _335  and  _336
REMARK  142  A    between atoms: _339  and  _341
REMARK  143  A    between atoms: _341  and  _342
REMARK  144  A    between atoms: _341  and  _344
REMARK  145  A    between atoms: _344  and  _345
REMARK  146  A    between atoms: _348  and  _350
REMARK  147  A    between atoms: _350  and  _351
REMARK  148  A    between atoms: _350  and  _353
REMARK  149  A    between atoms: _353  and  _354
REMARK  150  A    between atoms: _357  and  _359
REMARK  151  A    between atoms: _359  and  _360
REMARK  152  A    between atoms: _359  and  _362
REMARK  153  A    between atoms: _365  and  _367
REMARK  154  A    between atoms: _367  and  _368
REMARK  155  A    between atoms: _367  and  _370
REMARK  156  A    between atoms: _370  and  _371
REMARK  157  A    between atoms: _371  and  _372
REMARK  158  A    between atoms: _372  and  _373
REMARK  159  A    between atoms: _373  and  _374
REMARK  160  A    between atoms: _378  and  _380
REMARK  161  A    between atoms: _380  and  _381
REMARK  162  A    between atoms: _380  and  _383
REMARK  163  A    between atoms: _383  and  _384
REMARK  164  A    between atoms: _384  and  _385
REMARK  165  A    between atoms: _387  and  _389
REMARK  166  A    between atoms: _389  and  _390
REMARK  167  A    between atoms: _389  and  _392
REMARK  168  A    between atoms: _392  and  _393
REMARK  169  A    between atoms: _396  and  _398
REMARK  170  A    between atoms: _398  and  _399
REMARK  171  A    between atoms: _401  and  _403
REMARK  172  A    between atoms: _403  and  _404
REMARK  173  A    between atoms: _406  and  _408
REMARK  174  A    between atoms: _408  and  _409
REMARK  175  A    between atoms: _408  and  _411
REMARK  176  A    between atoms: _411  and  _412
REMARK  177  A    between atoms: _415  and  _417
REMARK  178  A    between atoms: _417  and  _418
REMARK  179  A    between atoms: _420  and  _422
REMARK  180  A    between atoms: _422  and  _423
REMARK  181  A    between atoms: _425  and  _427
REMARK  182  A    between atoms: _427  and  _428
REMARK  183  A    between atoms: _427  and  _430
REMARK  184  A    between atoms: _430  and  _431
REMARK  185  A    between atoms: _434  and  _436
REMARK  186  A    between atoms: _436  and  _437
REMARK  187  A    between atoms: _436  and  _439
REMARK  188  A    between atoms: _439  and  _440
REMARK  189  A    between atoms: _444  and  _445
REMARK  190  A    between atoms: _450  and  _452
REMARK  191  A    between atoms: _452  and  _453
REMARK  192  A    between atoms: _452  and  _455
REMARK  193  A    between atoms: _455  and  _456
REMARK  194  A    between atoms: _460  and  _461
REMARK  195  A    between atoms: _466  and  _468
REMARK  196  A    between atoms: _468  and  _469
REMARK  197  A    between atoms: _468  and  _471
REMARK  198  A    between atoms: _474  and  _476
REMARK  199  A    between atoms: _476  and  _477
REMARK  200  A    between atoms: _476  and  _479
REMARK  201  A    between atoms: _479  and  _480
REMARK  202  A    between atoms: _485  and  _487
REMARK  203  A    between atoms: _487  and  _488
REMARK  204  A    between atoms: _487  and  _490
REMARK  205  A    between atoms: _490  and  _491
REMARK  206  A    between atoms: _494  and  _496
REMARK  207  A    between atoms: _496  and  _497
REMARK  208  A    between atoms: _496  and  _499
REMARK  209  A    between atoms: _499  and  _500
REMARK  210  A    between atoms: _503  and  _505
REMARK  211  A    between atoms: _505  and  _506
REMARK  212  A    between atoms: _508  and  _510
REMARK  213  A    between atoms: _510  and  _511
REMARK  214  A    between atoms: _510  and  _513
REMARK  215  A    between atoms: _513  and  _514
REMARK  216  A    between atoms: _514  and  _515
REMARK  217  A    between atoms: _515  and  _516
REMARK  218  A    between atoms: _525  and  _527
REMARK  219  A    between atoms: _527  and  _528
REMARK  220  A    between atoms: _527  and  _530
REMARK  221  A    between atoms: _530  and  _531
REMARK                            x       y       z     vdW  Elec       q    Type
REMARK                         _______ _______ _______ _____ _____    ______ ____
ROOT
ATOM      1  O   HOH     1     -22.460 -30.298  24.381  0.00  0.00    +0.000 OA
ENDROOT
TORSDOF 0
REMARK  Name = ../refined-set-2016/4heg/4heg_pocket.pdb
REMARK  221 active torsions:
REMARK  status: ('A' for Active; 'I' for Inactive)
REMARK    1  A    between atoms: _1  and  _3
REMARK    2  A    between atoms: _3  and  _4
REMARK    3  A    between atoms: _3  and  _6
REMARK    4  A    between atoms: _6  and  _7
REMARK    5  A    between atoms: _7  and  _8
REMARK    6  A    between atoms: _13  and  _15
REMARK    7  A    between atoms: _15  and  _16
REMARK    8  A    between atoms: _15  and  _18
REMARK    9  A    between atoms: _18  and  _19
REMARK   10  A    between atoms: _22  and  _24
REMARK   11  A    between atoms: _24  and  _25
REMARK   12  A    between atoms: _24  and  _27
REMARK   13  A    between atoms: _27  and  _28
REMARK   14  A    between atoms: _31  and  _33
REMARK   15  A    between atoms: _33  and  _34
REMARK   16  A    between atoms: _33  and  _36
REMARK   17  A    between atoms: _36  and  _37
REMARK   18  A    between atoms: _40  and  _42
REMARK   19  A    between atoms: _42  and  _43
REMARK   20  A    between atoms: _42  and  _45
REMARK   21  A    between atoms: _45  and  _46
REMARK   22  A    between atoms: _49  and  _51
REMARK   23  A    between atoms: _51  and  _52
REMARK   24  A    between atoms: _54  and  _56
REMARK   25  A    between atoms: _56  and  _57
REMARK   26  A    between atoms: _60  and  _62
REMARK   27  A    between atoms: _62  and  _63
REMARK   28  A    between atoms: _62  and  _65
REMARK   29  A    between atoms: _65  and  _66
REMARK   30  A    between atoms: _69  and  _71
REMARK   31  A    between atoms: _71  and  _72
REMARK   32  A    between atoms: _71  and  _74
REMARK   33  A    between atoms: _74  and  _75
REMARK   34  A    between atoms: _78  and  _80
REMARK   35  A    between atoms: _80  and  _81
REMARK   36  A    between atoms: _80  and  _83
REMARK   37  A    between atoms: _83  and  _84
REMARK   38  A    between atoms: _87  and  _89
REMARK   39  A    between atoms: _89  and  _90
REMARK   40  A    between atoms: _89  and  _92
REMARK   41  A    between atoms: _95  and  _97
REMARK   42  A    between atoms: _97  and  _98
REMARK   43  A    between atoms: _97  and  _100
REMARK   44  A    between atoms: _100  and  _101
REMARK   45  A    between atoms: _101  and  _102
REMARK   46  A    between atoms: _102  and  _103
REMARK   47  A    between atoms: _103  and  _104
REMARK   48  A    between atoms: _108  and  _110
REMARK   49  A    between atoms: _110  and  _111
REMARK   50  A    between atoms: _110  and  _113
REMARK   51  A    between atoms: _113  and  _114
REMARK   52  A    between atoms: _114  and  _115
REMARK   53  A    between atoms: _117  and  _119
REMARK   54  A    between atoms: _119  and  _120
REMARK   55  A    between atoms: _119  and  _122
REMARK   56  A    between atoms: _122  and  _123
REMARK   57  A    between atoms: _126  and  _128
REMARK   58  A    between atoms: _128  and  _129
REMARK   59  A    between atoms: _131  and  _133
REMARK   60  A    between atoms: _133  and  _134
REMARK   61  A    between atoms: _136  and  _138
REMARK   62  A    between atoms: _138  and  _139
REMARK   63  A    between atoms: _138  and  _141
REMARK   64  A    between atoms: _141  and  _142
REMARK   65  A    between atoms: _145  and  _147
REMARK   66  A    between atoms: _147  and  _148
REMARK   67  A    between atoms: _150  and  _152
REMARK   68  A    between atoms: _152  and  _153
REMARK   69  A    between atoms: _155  and  _157
REMARK   70  A    between atoms: _157  and  _158
REMARK   71  A    between atoms: _157  and  _160
REMARK   72  A    between atoms: _160  and  _161
REMARK   73  A    between atoms: _167  and  _169
REMARK   74  A    between atoms: _169  and  _170
REMARK   75  A    between atoms: _169  and  _172
REMARK   76  A    between atoms: _172  and  _173
REMARK   77  A    between atoms: _176  and  _178
REMARK   78  A    between atoms: _178  and  _179
REMARK   79  A    between atoms: _178  and  _181
REMARK   80  A    between atoms: _181  and  _182
REMARK   81  A    between atoms: _185  and  _187
REMARK   82  A    between atoms: _187  and  _188
REMARK   83  A    between atoms: _187  and  _190
REMARK   84  A    between atoms: _190  and  _191
REMARK   85  A    between atoms: _195  and  _196
REMARK   86  A    between atoms: _201  and  _203
REMARK   87  A    between atoms: _203  and  _204
REMARK   88  A    between atoms: _203  and  _206
REMARK   89  A    between atoms: _209  and  _211
REMARK   90  A    between atoms: _211  and  _212
REMARK   91  A    between atoms: _211  and  _214
REMARK   92  A    between atoms: _214  and  _215
REMARK   93  A    between atoms: _220  and  _222
REMARK   94  A    between atoms: _222  and  _223
REMARK   95  A    between atoms: _222  and  _225
REMARK   96  A    between atoms: _225  and  _226
REMARK   97  A    between atoms: _229  and  _231
REMARK   98  A    between atoms: _231  and  _232
REMARK   99  A    between atoms: _231  and  _234
REMARK  100  A    between atoms: _234  and  _235
REMARK  101  A    between atoms: _238  and  _240
REMARK  102  A    between atoms: _240  and  _241
REMARK  103  A    between atoms: _243  and  _245
REMARK  104  A    between atoms: _245  and  _246
REMARK  105  A    between atoms: _245  and  _248
REMARK  106  A    between atoms: _248  and  _249
REMARK  107  A    between atoms: _249  and  _250
REMARK  108  A    between atoms: _250  and  _251
REMARK  109  A    between atoms: _260  and  _262
REMARK  110  A    between atoms: _262  and  _263
REMARK  111  A    between atoms: _262  and  _265
REMARK  112  A    between atoms: _265  and  _266
REMARK  113  A    between atoms: _271  and  _273
REMARK  114  A    between atoms: _273  and  _274
REMARK  115  A    between atoms: _273  and  _276
REMARK  116  A    between atoms: _276  and  _277
REMARK  117  A    between atoms: _277  and  _278
REMARK  118  A    between atoms: _283  and  _285
REMARK  119  A    between atoms: _285  and  _286
REMARK  120  A    between atoms: _285  and  _288
REMARK  121  A    between atoms: _288  and  _289
REMARK  122  A    between atoms: _292  and  _294
REMARK  123  A    between atoms: _294  and  _295
REMARK  124  A    between atoms: _294  and  _297
REMARK  125  A    between atoms: _297  and  _298
REMARK  126  A    between atoms: _301  and  _303
REMARK  127  A    between atoms: _303  and  _304
REMARK  128  A    between atoms: _303  and  _306
REMARK  129  A    between atoms: _306  and  _307
REMARK  130  A    between atoms: _310  and  _312
REMARK  131  A    between atoms: _312  and  _313
REMARK  132  A    between atoms: _312  and  _315
REMARK  133  A    between atoms: _315  and  _316
REMARK  134  A    between atoms: _319  and  _321
REMARK  135  A    between atoms: _321  and  _322
REMARK  136  A    between atoms: _324  and  _326
REMARK  137  A    between atoms: _326  and  _327
REMARK  138  A    between atoms: _330  and  _332
REMARK  139  A    between atoms: _332  and  _333
REMARK  140  A    between atoms: _332  and  _335
REMARK  141  A    between atoms: _335  and  _336
REMARK  142  A    between atoms: _339  and  _341
REMARK  143  A    between atoms: _341  and  _342
REMARK  144  A    between atoms: _341  and  _344
REMARK  145  A    between atoms: _344  and  _345
REMARK  146  A    between atoms: _348  and  _350
REMARK  147  A    between atoms: _350  and  _351
REMARK  148  A    between atoms: _350  and  _353
REMARK  149  A    between atoms: _353  and  _354
REMARK  150  A    between atoms: _357  and  _359
REMARK  151  A    between atoms: _359  and  _360
REMARK  152  A    between atoms: _359  and  _362
REMARK  153  A    between atoms: _365  and  _367
REMARK  154  A    between atoms: _367  and  _368
REMARK  155  A    between atoms: _367  and  _370
REMARK  156  A    between atoms: _370  and  _371
REMARK  157  A    between atoms: _371  and  _372
REMARK  158  A    between atoms: _372  and  _373
REMARK  159  A    between atoms: _373  and  _374
REMARK  160  A    between atoms: _378  and  _380
REMARK  161  A    between atoms: _380  and  _381
REMARK  162  A    between atoms: _380  and  _383
REMARK  163  A    between atoms: _383  and  _384
REMARK  164  A    between atoms: _384  and  _385
REMARK  165  A    between atoms: _387  and  _389
REMARK  166  A    between atoms: _389  and  _390
REMARK  167  A    between atoms: _389  and  _392
REMARK  168  A    between atoms: _392  and  _393
REMARK  169  A    between atoms: _396  and  _398
REMARK  170  A    between atoms: _398  and  _399
REMARK  171  A    between atoms: _401  and  _403
REMARK  172  A    between atoms: _403  and  _404
REMARK  173  A    between atoms: _406  and  _408
REMARK  174  A    between atoms: _408  and  _409
REMARK  175  A    between atoms: _408  and  _411
REMARK  176  A    between atoms: _411  and  _412
REMARK  177  A    between atoms: _415  and  _417
REMARK  178  A    between atoms: _417  and  _418
REMARK  179  A    between atoms: _420  and  _422
REMARK  180  A    between atoms: _422  and  _423
REMARK  181  A    between atoms: _425  and  _427
REMARK  182  A    between atoms: _427  and  _428
REMARK  183  A    between atoms: _427  and  _430
REMARK  184  A    between atoms: _430  and  _431
REMARK  185  A    between atoms: _434  and  _436
REMARK  186  A    between atoms: _436  and  _437
REMARK  187  A    between atoms: _436  and  _439
REMARK  188  A    between atoms: _439  and  _440
REMARK  189  A    between atoms: _444  and  _445
REMARK  190  A    between atoms: _450  and  _452
REMARK  191  A    between atoms: _452  and  _453
REMARK  192  A    between atoms: _452  and  _455
REMARK  193  A    between atoms: _455  and  _456
REMARK  194  A    between atoms: _460  and  _461
REMARK  195  A    between atoms: _466  and  _468
REMARK  196  A    between atoms: _468  and  _469
REMARK  197  A    between atoms: _468  and  _471
REMARK  198  A    between atoms: _474  and  _476
REMARK  199  A    between atoms: _476  and  _477
REMARK  200  A    between atoms: _476  and  _479
REMARK  201  A    between atoms: _479  and  _480
REMARK  202  A    between atoms: _485  and  _487
REMARK  203  A    between atoms: _487  and  _488
REMARK  204  A    between atoms: _487  and  _490
REMARK  205  A    between atoms: _490  and  _491
REMARK  206  A    between atoms: _494  and  _496
REMARK  207  A    between atoms: _496  and  _497
REMARK  208  A    between atoms: _496  and  _499
REMARK  209  A    between atoms: _499  and  _500
REMARK  210  A    between atoms: _503  and  _505
REMARK  211  A    between atoms: _505  and  _506
REMARK  212  A    between atoms: _508  and  _510
REMARK  213  A    between atoms: _510  and  _511
REMARK  214  A    between atoms: _510  and  _513
REMARK  215  A    between atoms: _513  and  _514
REMARK  216  A    between atoms: _514  and  _515
REMARK  217  A    between atoms: _515  and  _516
REMARK  218  A    between atoms: _525  and  _527
REMARK  219  A    between atoms: _527  and  _528
REMARK  220  A    between atoms: _527  and  _530
REMARK  221  A    between atoms: _530  and  _531
REMARK                            x       y       z     vdW  Elec       q    Type
REMARK                         _______ _______ _______ _____ _____    ______ ____
ROOT
ATOM      1  O   HOH     1     -18.990 -23.066  17.990  0.00  0.00    +0.000 OA
ENDROOT
TORSDOF 0
REMARK  Name = ../refined-set-2016/4heg/4heg_pocket.pdb
REMARK  221 active torsions:
REMARK  status: ('A' for Active; 'I' for Inactive)
REMARK    1  A    between atoms: _1  and  _3
REMARK    2  A    between atoms: _3  and  _4
REMARK    3  A    between atoms: _3  and  _6
REMARK    4  A    between atoms: _6  and  _7
REMARK    5  A    between atoms: _7  and  _8
REMARK    6  A    between atoms: _13  and  _15
REMARK    7  A    between atoms: _15  and  _16
REMARK    8  A    between atoms: _15  and  _18
REMARK    9  A    between atoms: _18  and  _19
REMARK   10  A    between atoms: _22  and  _24
REMARK   11  A    between atoms: _24  and  _25
REMARK   12  A    between atoms: _24  and  _27
REMARK   13  A    between atoms: _27  and  _28
REMARK   14  A    between atoms: _31  and  _33
REMARK   15  A    between atoms: _33  and  _34
REMARK   16  A    between atoms: _33  and  _36
REMARK   17  A    between atoms: _36  and  _37
REMARK   18  A    between atoms: _40  and  _42
REMARK   19  A    between atoms: _42  and  _43
REMARK   20  A    between atoms: _42  and  _45
REMARK   21  A    between atoms: _45  and  _46
REMARK   22  A    between atoms: _49  and  _51
REMARK   23  A    between atoms: _51  and  _52
REMARK   24  A    between atoms: _54  and  _56
REMARK   25  A    between atoms: _56  and  _57
REMARK   26  A    between atoms: _60  and  _62
REMARK   27  A    between atoms: _62  and  _63
REMARK   28  A    between atoms: _62  and  _65
REMARK   29  A    between atoms: _65  and  _66
REMARK   30  A    between atoms: _69  and  _71
REMARK   31  A    between atoms: _71  and  _72
REMARK   32  A    between atoms: _71  and  _74
REMARK   33  A    between atoms: _74  and  _75
REMARK   34  A    between atoms: _78  and  _80
REMARK   35  A    between atoms: _80  and  _81
REMARK   36  A    between atoms: _80  and  _83
REMARK   37  A    between atoms: _83  and  _84
REMARK   38  A    between atoms: _87  and  _89
REMARK   39  A    between atoms: _89  and  _90
REMARK   40  A    between atoms: _89  and  _92
REMARK   41  A    between atoms: _95  and  _97
REMARK   42  A    between atoms: _97  and  _98
REMARK   43  A    between atoms: _97  and  _100
REMARK   44  A    between atoms: _100  and  _101
REMARK   45  A    between atoms: _101  and  _102
REMARK   46  A    between atoms: _102  and  _103
REMARK   47  A    between atoms: _103  and  _104
REMARK   48  A    between atoms: _108  and  _110
REMARK   49  A    between atoms: _110  and  _111
REMARK   50  A    between atoms: _110  and  _113
REMARK   51  A    between atoms: _113  and  _114
REMARK   52  A    between atoms: _114  and  _115
REMARK   53  A    between atoms: _117  and  _119
REMARK   54  A    between atoms: _119  and  _120
REMARK   55  A    between atoms: _119  and  _122
REMARK   56  A    between atoms: _122  and  _123
REMARK   57  A    between atoms: _126  and  _128
REMARK   58  A    between atoms: _128  and  _129
REMARK   59  A    between atoms: _131  and  _133
REMARK   60  A    between atoms: _133  and  _134
REMARK   61  A    between atoms: _136  and  _138
REMARK   62  A    between atoms: _138  and  _139
REMARK   63  A    between atoms: _138  and  _141
REMARK   64  A    between atoms: _141  and  _142
REMARK   65  A    between atoms: _145  and  _147
REMARK   66  A    between atoms: _147  and  _148
REMARK   67  A    between atoms: _150  and  _152
REMARK   68  A    between atoms: _152  and  _153
REMARK   69  A    between atoms: _155  and  _157
REMARK   70  A    between atoms: _157  and  _158
REMARK   71  A    between atoms: _157  and  _160
REMARK   72  A    between atoms: _160  and  _161
REMARK   73  A    between atoms: _167  and  _169
REMARK   74  A    between atoms: _169  and  _170
REMARK   75  A    between atoms: _169  and  _172
REMARK   76  A    between atoms: _172  and  _173
REMARK   77  A    between atoms: _176  and  _178
REMARK   78  A    between atoms: _178  and  _179
REMARK   79  A    between atoms: _178  and  _181
REMARK   80  A    between atoms: _181  and  _182
REMARK   81  A    between atoms: _185  and  _187
REMARK   82  A    between atoms: _187  and  _188
REMARK   83  A    between atoms: _187  and  _190
REMARK   84  A    between atoms: _190  and  _191
REMARK   85  A    between atoms: _195  and  _196
REMARK   86  A    between atoms: _201  and  _203
REMARK   87  A    between atoms: _203  and  _204
REMARK   88  A    between atoms: _203  and  _206
REMARK   89  A    between atoms: _209  and  _211
REMARK   90  A    between atoms: _211  and  _212
REMARK   91  A    between atoms: _211  and  _214
REMARK   92  A    between atoms: _214  and  _215
REMARK   93  A    between atoms: _220  and  _222
REMARK   94  A    between atoms: _222  and  _223
REMARK   95  A    between atoms: _222  and  _225
REMARK   96  A    between atoms: _225  and  _226
REMARK   97  A    between atoms: _229  and  _231
REMARK   98  A    between atoms: _231  and  _232
REMARK   99  A    between atoms: _231  and  _234
REMARK  100  A    between atoms: _234  and  _235
REMARK  101  A    between atoms: _238  and  _240
REMARK  102  A    between atoms: _240  and  _241
REMARK  103  A    between atoms: _243  and  _245
REMARK  104  A    between atoms: _245  and  _246
REMARK  105  A    between atoms: _245  and  _248
REMARK  106  A    between atoms: _248  and  _249
REMARK  107  A    between atoms: _249  and  _250
REMARK  108  A    between atoms: _250  and  _251
REMARK  109  A    between atoms: _260  and  _262
REMARK  110  A    between atoms: _262  and  _263
REMARK  111  A    between atoms: _262  and  _265
REMARK  112  A    between atoms: _265  and  _266
REMARK  113  A    between atoms: _271  and  _273
REMARK  114  A    between atoms: _273  and  _274
REMARK  115  A    between atoms: _273  and  _276
REMARK  116  A    between atoms: _276  and  _277
REMARK  117  A    between atoms: _277  and  _278
REMARK  118  A    between atoms: _283  and  _285
REMARK  119  A    between atoms: _285  and  _286
REMARK  120  A    between atoms: _285  and  _288
REMARK  121  A    between atoms: _288  and  _289
REMARK  122  A    between atoms: _292  and  _294
REMARK  123  A    between atoms: _294  and  _295
REMARK  124  A    between atoms: _294  and  _297
REMARK  125  A    between atoms: _297  and  _298
REMARK  126  A    between atoms: _301  and  _303
REMARK  127  A    between atoms: _303  and  _304
REMARK  128  A    between atoms: _303  and  _306
REMARK  129  A    between atoms: _306  and  _307
REMARK  130  A    between atoms: _310  and  _312
REMARK  131  A    between atoms: _312  and  _313
REMARK  132  A    between atoms: _312  and  _315
REMARK  133  A    between atoms: _315  and  _316
REMARK  134  A    between atoms: _319  and  _321
REMARK  135  A    between atoms: _321  and  _322
REMARK  136  A    between atoms: _324  and  _326
REMARK  137  A    between atoms: _326  and  _327
REMARK  138  A    between atoms: _330  and  _332
REMARK  139  A    between atoms: _332  and  _333
REMARK  140  A    between atoms: _332  and  _335
REMARK  141  A    between atoms: _335  and  _336
REMARK  142  A    between atoms: _339  and  _341
REMARK  143  A    between atoms: _341  and  _342
REMARK  144  A    between atoms: _341  and  _344
REMARK  145  A    between atoms: _344  and  _345
REMARK  146  A    between atoms: _348  and  _350
REMARK  147  A    between atoms: _350  and  _351
REMARK  148  A    between atoms: _350  and  _353
REMARK  149  A    between atoms: _353  and  _354
REMARK  150  A    between atoms: _357  and  _359
REMARK  151  A    between atoms: _359  and  _360
REMARK  152  A    between atoms: _359  and  _362
REMARK  153  A    between atoms: _365  and  _367
REMARK  154  A    between atoms: _367  and  _368
REMARK  155  A    between atoms: _367  and  _370
REMARK  156  A    between atoms: _370  and  _371
REMARK  157  A    between atoms: _371  and  _372
REMARK  158  A    between atoms: _372  and  _373
REMARK  159  A    between atoms: _373  and  _374
REMARK  160  A    between atoms: _378  and  _380
REMARK  161  A    between atoms: _380  and  _381
REMARK  162  A    between atoms: _380  and  _383
REMARK  163  A    between atoms: _383  and  _384
REMARK  164  A    between atoms: _384  and  _385
REMARK  165  A    between atoms: _387  and  _389
REMARK  166  A    between atoms: _389  and  _390
REMARK  167  A    between atoms: _389  and  _392
REMARK  168  A    between atoms: _392  and  _393
REMARK  169  A    between atoms: _396  and  _398
REMARK  170  A    between atoms: _398  and  _399
REMARK  171  A    between atoms: _401  and  _403
REMARK  172  A    between atoms: _403  and  _404
REMARK  173  A    between atoms: _406  and  _408
REMARK  174  A    between atoms: _408  and  _409
REMARK  175  A    between atoms: _408  and  _411
REMARK  176  A    between atoms: _411  and  _412
REMARK  177  A    between atoms: _415  and  _417
REMARK  178  A    between atoms: _417  and  _418
REMARK  179  A    between atoms: _420  and  _422
REMARK  180  A    between atoms: _422  and  _423
REMARK  181  A    between atoms: _425  and  _427
REMARK  182  A    between atoms: _427  and  _428
REMARK  183  A    between atoms: _427  and  _430
REMARK  184  A    between atoms: _430  and  _431
REMARK  185  A    between atoms: _434  and  _436
REMARK  186  A    between atoms: _436  and  _437
REMARK  187  A    between atoms: _436  and  _439
REMARK  188  A    between atoms: _439  and  _440
REMARK  189  A    between atoms: _444  and  _445
REMARK  190  A    between atoms: _450  and  _452
REMARK  191  A    between atoms: _452  and  _453
REMARK  192  A    between atoms: _452  and  _455
REMARK  193  A    between atoms: _455  and  _456
REMARK  194  A    between atoms: _460  and  _461
REMARK  195  A    between atoms: _466  and  _468
REMARK  196  A    between atoms: _468  and  _469
REMARK  197  A    between atoms: _468  and  _471
REMARK  198  A    between atoms: _474  and  _476
REMARK  199  A    between atoms: _476  and  _477
REMARK  200  A    between atoms: _476  and  _479
REMARK  201  A    between atoms: _479  and  _480
REMARK  202  A    between atoms: _485  and  _487
REMARK  203  A    between atoms: _487  and  _488
REMARK  204  A    between atoms: _487  and  _490
REMARK  205  A    between atoms: _490  and  _491
REMARK  206  A    between atoms: _494  and  _496
REMARK  207  A    between atoms: _496  and  _497
REMARK  208  A    between atoms: _496  and  _499
REMARK  209  A    between atoms: _499  and  _500
REMARK  210  A    between atoms: _503  and  _505
REMARK  211  A    between atoms: _505  and  _506
REMARK  212  A    between atoms: _508  and  _510
REMARK  213  A    between atoms: _510  and  _511
REMARK  214  A    between atoms: _510  and  _513
REMARK  215  A    between atoms: _513  and  _514
REMARK  216  A    between atoms: _514  and  _515
REMARK  217  A    between atoms: _515  and  _516
REMARK  218  A    between atoms: _525  and  _527
REMARK  219  A    between atoms: _527  and  _528
REMARK  220  A    between atoms: _527  and  _530
REMARK  221  A    between atoms: _530  and  _531
REMARK                            x       y       z     vdW  Elec       q    Type
REMARK                         _______ _______ _______ _____ _____    ______ ____
ROOT
ATOM      1  O   HOH     1     -23.283 -27.532  21.198  0.00  0.00    +0.000 OA
ENDROOT
TORSDOF 0
REMARK  Name = ../refined-set-2016/4heg/4heg_pocket.pdb
REMARK  221 active torsions:
REMARK  status: ('A' for Active; 'I' for Inactive)
REMARK    1  A    between atoms: _1  and  _3
REMARK    2  A    between atoms: _3  and  _4
REMARK    3  A    between atoms: _3  and  _6
REMARK    4  A    between atoms: _6  and  _7
REMARK    5  A    between atoms: _7  and  _8
REMARK    6  A    between atoms: _13  and  _15
REMARK    7  A    between atoms: _15  and  _16
REMARK    8  A    between atoms: _15  and  _18
REMARK    9  A    between atoms: _18  and  _19
REMARK   10  A    between atoms: _22  and  _24
REMARK   11  A    between atoms: _24  and  _25
REMARK   12  A    between atoms: _24  and  _27
REMARK   13  A    between atoms: _27  and  _28
REMARK   14  A    between atoms: _31  and  _33
REMARK   15  A    between atoms: _33  and  _34
REMARK   16  A    between atoms: _33  and  _36
REMARK   17  A    between atoms: _36  and  _37
REMARK   18  A    between atoms: _40  and  _42
REMARK   19  A    between atoms: _42  and  _43
REMARK   20  A    between atoms: _42  and  _45
REMARK   21  A    between atoms: _45  and  _46
REMARK   22  A    between atoms: _49  and  _51
REMARK   23  A    between atoms: _51  and  _52
REMARK   24  A    between atoms: _54  and  _56
REMARK   25  A    between atoms: _56  and  _57
REMARK   26  A    between atoms: _60  and  _62
REMARK   27  A    between atoms: _62  and  _63
REMARK   28  A    between atoms: _62  and  _65
REMARK   29  A    between atoms: _65  and  _66
REMARK   30  A    between atoms: _69  and  _71
REMARK   31  A    between atoms: _71  and  _72
REMARK   32  A    between atoms: _71  and  _74
REMARK   33  A    between atoms: _74  and  _75
REMARK   34  A    between atoms: _78  and  _80
REMARK   35  A    between atoms: _80  and  _81
REMARK   36  A    between atoms: _80  and  _83
REMARK   37  A    between atoms: _83  and  _84
REMARK   38  A    between atoms: _87  and  _89
REMARK   39  A    between atoms: _89  and  _90
REMARK   40  A    between atoms: _89  and  _92
REMARK   41  A    between atoms: _95  and  _97
REMARK   42  A    between atoms: _97  and  _98
REMARK   43  A    between atoms: _97  and  _100
REMARK   44  A    between atoms: _100  and  _101
REMARK   45  A    between atoms: _101  and  _102
REMARK   46  A    between atoms: _102  and  _103
REMARK   47  A    between atoms: _103  and  _104
REMARK   48  A    between atoms: _108  and  _110
REMARK   49  A    between atoms: _110  and  _111
REMARK   50  A    between atoms: _110  and  _113
REMARK   51  A    between atoms: _113  and  _114
REMARK   52  A    between atoms: _114  and  _115
REMARK   53  A    between atoms: _117  and  _119
REMARK   54  A    between atoms: _119  and  _120
REMARK   55  A    between atoms: _119  and  _122
REMARK   56  A    between atoms: _122  and  _123
REMARK   57  A    between atoms: _126  and  _128
REMARK   58  A    between atoms: _128  and  _129
REMARK   59  A    between atoms: _131  and  _133
REMARK   60  A    between atoms: _133  and  _134
REMARK   61  A    between atoms: _136  and  _138
REMARK   62  A    between atoms: _138  and  _139
REMARK   63  A    between atoms: _138  and  _141
REMARK   64  A    between atoms: _141  and  _142
REMARK   65  A    between atoms: _145  and  _147
REMARK   66  A    between atoms: _147  and  _148
REMARK   67  A    between atoms: _150  and  _152
REMARK   68  A    between atoms: _152  and  _153
REMARK   69  A    between atoms: _155  and  _157
REMARK   70  A    between atoms: _157  and  _158
REMARK   71  A    between atoms: _157  and  _160
REMARK   72  A    between atoms: _160  and  _161
REMARK   73  A    between atoms: _167  and  _169
REMARK   74  A    between atoms: _169  and  _170
REMARK   75  A    between atoms: _169  and  _172
REMARK   76  A    between atoms: _172  and  _173
REMARK   77  A    between atoms: _176  and  _178
REMARK   78  A    between atoms: _178  and  _179
REMARK   79  A    between atoms: _178  and  _181
REMARK   80  A    between atoms: _181  and  _182
REMARK   81  A    between atoms: _185  and  _187
REMARK   82  A    between atoms: _187  and  _188
REMARK   83  A    between atoms: _187  and  _190
REMARK   84  A    between atoms: _190  and  _191
REMARK   85  A    between atoms: _195  and  _196
REMARK   86  A    between atoms: _201  and  _203
REMARK   87  A    between atoms: _203  and  _204
REMARK   88  A    between atoms: _203  and  _206
REMARK   89  A    between atoms: _209  and  _211
REMARK   90  A    between atoms: _211  and  _212
REMARK   91  A    between atoms: _211  and  _214
REMARK   92  A    between atoms: _214  and  _215
REMARK   93  A    between atoms: _220  and  _222
REMARK   94  A    between atoms: _222  and  _223
REMARK   95  A    between atoms: _222  and  _225
REMARK   96  A    between atoms: _225  and  _226
REMARK   97  A    between atoms: _229  and  _231
REMARK   98  A    between atoms: _231  and  _232
REMARK   99  A    between atoms: _231  and  _234
REMARK  100  A    between atoms: _234  and  _235
REMARK  101  A    between atoms: _238  and  _240
REMARK  102  A    between atoms: _240  and  _241
REMARK  103  A    between atoms: _243  and  _245
REMARK  104  A    between atoms: _245  and  _246
REMARK  105  A    between atoms: _245  and  _248
REMARK  106  A    between atoms: _248  and  _249
REMARK  107  A    between atoms: _249  and  _250
REMARK  108  A    between atoms: _250  and  _251
REMARK  109  A    between atoms: _260  and  _262
REMARK  110  A    between atoms: _262  and  _263
REMARK  111  A    between atoms: _262  and  _265
REMARK  112  A    between atoms: _265  and  _266
REMARK  113  A    between atoms: _271  and  _273
REMARK  114  A    between atoms: _273  and  _274
REMARK  115  A    between atoms: _273  and  _276
REMARK  116  A    between atoms: _276  and  _277
REMARK  117  A    between atoms: _277  and  _278
REMARK  118  A    between atoms: _283  and  _285
REMARK  119  A    between atoms: _285  and  _286
REMARK  120  A    between atoms: _285  and  _288
REMARK  121  A    between atoms: _288  and  _289
REMARK  122  A    between atoms: _292  and  _294
REMARK  123  A    between atoms: _294  and  _295
REMARK  124  A    between atoms: _294  and  _297
REMARK  125  A    between atoms: _297  and  _298
REMARK  126  A    between atoms: _301  and  _303
REMARK  127  A    between atoms: _303  and  _304
REMARK  128  A    between atoms: _303  and  _306
REMARK  129  A    between atoms: _306  and  _307
REMARK  130  A    between atoms: _310  and  _312
REMARK  131  A    between atoms: _312  and  _313
REMARK  132  A    between atoms: _312  and  _315
REMARK  133  A    between atoms: _315  and  _316
REMARK  134  A    between atoms: _319  and  _321
REMARK  135  A    between atoms: _321  and  _322
REMARK  136  A    between atoms: _324  and  _326
REMARK  137  A    between atoms: _326  and  _327
REMARK  138  A    between atoms: _330  and  _332
REMARK  139  A    between atoms: _332  and  _333
REMARK  140  A    between atoms: _332  and  _335
REMARK  141  A    between atoms: _335  and  _336
REMARK  142  A    between atoms: _339  and  _341
REMARK  143  A    between atoms: _341  and  _342
REMARK  144  A    between atoms: _341  and  _344
REMARK  145  A    between atoms: _344  and  _345
REMARK  146  A    between atoms: _348  and  _350
REMARK  147  A    between atoms: _350  and  _351
REMARK  148  A    between atoms: _350  and  _353
REMARK  149  A    between atoms: _353  and  _354
REMARK  150  A    between atoms: _357  and  _359
REMARK  151  A    between atoms: _359  and  _360
REMARK  152  A    between atoms: _359  and  _362
REMARK  153  A    between atoms: _365  and  _367
REMARK  154  A    between atoms: _367  and  _368
REMARK  155  A    between atoms: _367  and  _370
REMARK  156  A    between atoms: _370  and  _371
REMARK  157  A    between atoms: _371  and  _372
REMARK  158  A    between atoms: _372  and  _373
REMARK  159  A    between atoms: _373  and  _374
REMARK  160  A    between atoms: _378  and  _380
REMARK  161  A    between atoms: _380  and  _381
REMARK  162  A    between atoms: _380  and  _383
REMARK  163  A    between atoms: _383  and  _384
REMARK  164  A    between atoms: _384  and  _385
REMARK  165  A    between atoms: _387  and  _389
REMARK  166  A    between atoms: _389  and  _390
REMARK  167  A    between atoms: _389  and  _392
REMARK  168  A    between atoms: _392  and  _393
REMARK  169  A    between atoms: _396  and  _398
REMARK  170  A    between atoms: _398  and  _399
REMARK  171  A    between atoms: _401  and  _403
REMARK  172  A    between atoms: _403  and  _404
REMARK  173  A    between atoms: _406  and  _408
REMARK  174  A    between atoms: _408  and  _409
REMARK  175  A    between atoms: _408  and  _411
REMARK  176  A    between atoms: _411  and  _412
REMARK  177  A    between atoms: _415  and  _417
REMARK  178  A    between atoms: _417  and  _418
REMARK  179  A    between atoms: _420  and  _422
REMARK  180  A    between atoms: _422  and  _423
REMARK  181  A    between atoms: _425  and  _427
REMARK  182  A    between atoms: _427  and  _428
REMARK  183  A    between atoms: _427  and  _430
REMARK  184  A    between atoms: _430  and  _431
REMARK  185  A    between atoms: _434  and  _436
REMARK  186  A    between atoms: _436  and  _437
REMARK  187  A    between atoms: _436  and  _439
REMARK  188  A    between atoms: _439  and  _440
REMARK  189  A    between atoms: _444  and  _445
REMARK  190  A    between atoms: _450  and  _452
REMARK  191  A    between atoms: _452  and  _453
REMARK  192  A    between atoms: _452  and  _455
REMARK  193  A    between atoms: _455  and  _456
REMARK  194  A    between atoms: _460  and  _461
REMARK  195  A    between atoms: _466  and  _468
REMARK  196  A    between atoms: _468  and  _469
REMARK  197  A    between atoms: _468  and  _471
REMARK  198  A    between atoms: _474  and  _476
REMARK  199  A    between atoms: _476  and  _477
REMARK  200  A    between atoms: _476  and  _479
REMARK  201  A    between atoms: _479  and  _480
REMARK  202  A    between atoms: _485  and  _487
REMARK  203  A    between atoms: _487  and  _488
REMARK  204  A    between atoms: _487  and  _490
REMARK  205  A    between atoms: _490  and  _491
REMARK  206  A    between atoms: _494  and  _496
REMARK  207  A    between atoms: _496  and  _497
REMARK  208  A    between atoms: _496  and  _499
REMARK  209  A    between atoms: _499  and  _500
REMARK  210  A    between atoms: _503  and  _505
REMARK  211  A    between atoms: _505  and  _506
REMARK  212  A    between atoms: _508  and  _510
REMARK  213  A    between atoms: _510  and  _511
REMARK  214  A    between atoms: _510  and  _513
REMARK  215  A    between atoms: _513  and  _514
REMARK  216  A    between atoms: _514  and  _515
REMARK  217  A    between atoms: _515  and  _516
REMARK  218  A    between atoms: _525  and  _527
REMARK  219  A    between atoms: _527  and  _528
REMARK  220  A    between atoms: _527  and  _530
REMARK  221  A    between atoms: _530  and  _531
REMARK                            x       y       z     vdW  Elec       q    Type
REMARK                         _______ _______ _______ _____ _____    ______ ____
ROOT
ATOM      1  O   HOH     1      -8.558 -15.074  18.445  0.00  0.00    +0.000 OA
ENDROOT
TORSDOF 0
