REMARK  Name = ../refined-set-2016/3ckb/3ckb_pocket.pdb
REMARK  146 active torsions:
REMARK  status: ('A' for Active; 'I' for Inactive)
REMARK    1  A    between atoms: _1  and  _3
REMARK    2  A    between atoms: _3  and  _4
REMARK    3  A    between atoms: _3  and  _6
REMARK    4  A    between atoms: _6  and  _7
REMARK    5  A    between atoms: _7  and  _8
REMARK    6  A    between atoms: _13  and  _15
REMARK    7  A    between atoms: _15  and  _16
REMARK    8  A    between atoms: _15  and  _18
REMARK    9  A    between atoms: _18  and  _19
REMARK   10  A    between atoms: _22  and  _24
REMARK   11  A    between atoms: _24  and  _25
REMARK   12  A    between atoms: _24  and  _27
REMARK   13  A    between atoms: _27  and  _28
REMARK   14  A    between atoms: _28  and  _29
REMARK   15  A    between atoms: _32  and  _34
REMARK   16  A    between atoms: _34  and  _35
REMARK   17  A    between atoms: _37  and  _39
REMARK   18  A    between atoms: _39  and  _40
REMARK   19  A    between atoms: _39  and  _42
REMARK   20  A    between atoms: _42  and  _43
REMARK   21  A    between atoms: _43  and  _44
REMARK   22  A    between atoms: _47  and  _49
REMARK   23  A    between atoms: _49  and  _50
REMARK   24  A    between atoms: _49  and  _52
REMARK   25  A    between atoms: _52  and  _53
REMARK   26  A    between atoms: _55  and  _57
REMARK   27  A    between atoms: _57  and  _58
REMARK   28  A    between atoms: _60  and  _62
REMARK   29  A    between atoms: _62  and  _63
REMARK   30  A    between atoms: _62  and  _65
REMARK   31  A    between atoms: _65  and  _66
REMARK   32  A    between atoms: _66  and  _67
REMARK   33  A    between atoms: _67  and  _68
REMARK   34  A    between atoms: _77  and  _79
REMARK   35  A    between atoms: _79  and  _80
REMARK   36  A    between atoms: _79  and  _82
REMARK   37  A    between atoms: _82  and  _83
REMARK   38  A    between atoms: _88  and  _90
REMARK   39  A    between atoms: _90  and  _91
REMARK   40  A    between atoms: _90  and  _93
REMARK   41  A    between atoms: _93  and  _94
REMARK   42  A    between atoms: _104  and  _106
REMARK   43  A    between atoms: _106  and  _107
REMARK   44  A    between atoms: _110  and  _112
REMARK   45  A    between atoms: _112  and  _113
REMARK   46  A    between atoms: _112  and  _115
REMARK   47  A    between atoms: _115  and  _116
REMARK   48  A    between atoms: _126  and  _128
REMARK   49  A    between atoms: _128  and  _129
REMARK   50  A    between atoms: _128  and  _131
REMARK   51  A    between atoms: _131  and  _132
REMARK   52  A    between atoms: _132  and  _133
REMARK   53  A    between atoms: _138  and  _140
REMARK   54  A    between atoms: _140  and  _141
REMARK   55  A    between atoms: _140  and  _143
REMARK   56  A    between atoms: _143  and  _144
REMARK   57  A    between atoms: _144  and  _145
REMARK   58  A    between atoms: _145  and  _146
REMARK   59  A    between atoms: _146  and  _147
REMARK   60  A    between atoms: _151  and  _153
REMARK   61  A    between atoms: _153  and  _154
REMARK   62  A    between atoms: _153  and  _156
REMARK   63  A    between atoms: _156  and  _157
REMARK   64  A    between atoms: _162  and  _164
REMARK   65  A    between atoms: _164  and  _165
REMARK   66  A    between atoms: _164  and  _167
REMARK   67  A    between atoms: _167  and  _168
REMARK   68  A    between atoms: _168  and  _169
REMARK   69  A    between atoms: _174  and  _176
REMARK   70  A    between atoms: _176  and  _177
REMARK   71  A    between atoms: _176  and  _179
REMARK   72  A    between atoms: _179  and  _180
REMARK   73  A    between atoms: _183  and  _185
REMARK   74  A    between atoms: _185  and  _186
REMARK   75  A    between atoms: _185  and  _188
REMARK   76  A    between atoms: _188  and  _189
REMARK   77  A    between atoms: _189  and  _190
REMARK   78  A    between atoms: _190  and  _191
REMARK   79  A    between atoms: _200  and  _202
REMARK   80  A    between atoms: _202  and  _203
REMARK   81  A    between atoms: _202  and  _205
REMARK   82  A    between atoms: _205  and  _206
REMARK   83  A    between atoms: _216  and  _218
REMARK   84  A    between atoms: _218  and  _219
REMARK   85  A    between atoms: _218  and  _221
REMARK   86  A    between atoms: _221  and  _222
REMARK   87  A    between atoms: _227  and  _229
REMARK   88  A    between atoms: _229  and  _230
REMARK   89  A    between atoms: _229  and  _232
REMARK   90  A    between atoms: _232  and  _233
REMARK   91  A    between atoms: _238  and  _239
REMARK   92  A    between atoms: _241  and  _243
REMARK   93  A    between atoms: _243  and  _244
REMARK   94  A    between atoms: _246  and  _248
REMARK   95  A    between atoms: _248  and  _249
REMARK   96  A    between atoms: _248  and  _251
REMARK   97  A    between atoms: _251  and  _252
REMARK   98  A    between atoms: _255  and  _257
REMARK   99  A    between atoms: _257  and  _258
REMARK  100  A    between atoms: _257  and  _260
REMARK  101  A    between atoms: _260  and  _261
REMARK  102  A    between atoms: _266  and  _267
REMARK  103  A    between atoms: _269  and  _271
REMARK  104  A    between atoms: _271  and  _272
REMARK  105  A    between atoms: _271  and  _274
REMARK  106  A    between atoms: _276  and  _278
REMARK  107  A    between atoms: _278  and  _279
REMARK  108  A    between atoms: _281  and  _283
REMARK  109  A    between atoms: _283  and  _284
REMARK  110  A    between atoms: _283  and  _286
REMARK  111  A    between atoms: _286  and  _287
REMARK  112  A    between atoms: _287  and  _288
REMARK  113  A    between atoms: _288  and  _289
REMARK  114  A    between atoms: _298  and  _300
REMARK  115  A    between atoms: _300  and  _301
REMARK  116  A    between atoms: _300  and  _303
REMARK  117  A    between atoms: _306  and  _308
REMARK  118  A    between atoms: _308  and  _309
REMARK  119  A    between atoms: _308  and  _311
REMARK  120  A    between atoms: _311  and  _312
REMARK  121  A    between atoms: _317  and  _319
REMARK  122  A    between atoms: _319  and  _320
REMARK  123  A    between atoms: _322  and  _324
REMARK  124  A    between atoms: _324  and  _325
REMARK  125  A    between atoms: _324  and  _327
REMARK  126  A    between atoms: _327  and  _328
REMARK  127  A    between atoms: _338  and  _340
REMARK  128  A    between atoms: _340  and  _341
REMARK  129  A    between atoms: _340  and  _343
REMARK  130  A    between atoms: _343  and  _344
REMARK  131  A    between atoms: _346  and  _348
REMARK  132  A    between atoms: _348  and  _349
REMARK  133  A    between atoms: _348  and  _351
REMARK  134  A    between atoms: _353  and  _355
REMARK  135  A    between atoms: _355  and  _356
REMARK  136  A    between atoms: _355  and  _358
REMARK  137  A    between atoms: _358  and  _359
REMARK  138  A    between atoms: _362  and  _364
REMARK  139  A    between atoms: _364  and  _365
REMARK  140  A    between atoms: _364  and  _367
REMARK  141  A    between atoms: _367  and  _368
REMARK  142  A    between atoms: _374  and  _376
REMARK  143  A    between atoms: _376  and  _377
REMARK  144  A    between atoms: _376  and  _379
REMARK  145  A    between atoms: _379  and  _380
REMARK  146  A    between atoms: _385  and  _386
REMARK                            x       y       z     vdW  Elec       q    Type
REMARK                         _______ _______ _______ _____ _____    ______ ____
ROOT
ATOM      1  C   GLU A   3      10.101 -23.683  -3.594  0.00  0.00    +0.241 C 
ATOM      2  N   GLY A   4       8.966 -24.342  -3.822  0.00  0.00    -0.295 N 
ATOM      3  H   GLY A   4       8.874 -25.323  -3.489  0.00  0.00    +0.150 HD
ATOM      4  O   GLU A   3      10.312 -22.532  -3.990  0.00  0.00    -0.273 OA
ENDROOT
BRANCH   2   5
ATOM      5  CA  GLY A   4       7.852 -23.726  -4.524  0.00  0.00    +0.176 C 
BRANCH   5   6
ATOM      6  C   GLY A   4       7.986 -23.406  -6.002  0.00  0.00    +0.243 C 
ATOM      7  O   GLY A   4       7.153 -22.681  -6.545  0.00  0.00    -0.273 OA
ATOM      8  N   GLU A   5       9.001 -23.951  -6.667  0.00  0.00    -0.297 N 
ATOM      9  H   GLU A   5       9.664 -24.580  -6.170  0.00  0.00    +0.150 HD
BRANCH   8  10
ATOM     10  CA  GLU A   5       9.194 -23.674  -8.090  0.00  0.00    +0.149 C 
BRANCH  10  11
ATOM     11  C   GLU A   5       8.155 -24.270  -9.044  0.00  0.00    +0.241 C 
ATOM     12  N   SER A   6       7.485 -25.339  -8.630  0.00  0.00    -0.295 N 
ATOM     13  H   SER A   6       7.681 -25.728  -7.686  0.00  0.00    +0.150 HD
ATOM     14  O   GLU A   5       7.973 -23.764 -10.152  0.00  0.00    -0.273 OA
BRANCH  12  15
ATOM     15  CA  SER A   6       6.476 -25.983  -9.473  0.00  0.00    +0.178 C 
BRANCH  15  16
ATOM     16  C   SER A   6       5.184 -25.188  -9.427  0.00  0.00    +0.243 C 
ATOM     17  N   GLY A   7       5.165 -24.184  -8.561  0.00  0.00    -0.296 N 
ATOM     18  H   GLY A   7       6.017 -23.985  -7.998  0.00  0.00    +0.150 HD
ATOM     19  O   SER A   6       4.238 -25.480 -10.152  0.00  0.00    -0.273 OA
BRANCH  17  20
ATOM     20  CA  GLY A   7       3.989 -23.355  -8.377  0.00  0.00    +0.163 C 
BRANCH  20  21
ATOM     21  C   GLY A   7       3.255 -22.885  -9.611  0.00  0.00    +0.229 C 
ATOM     22  O   GLY A   7       3.861 -22.418 -10.575  0.00  0.00    -0.286 OA
ENDBRANCH  20  21
ENDBRANCH  17  20
ENDBRANCH  15  16
BRANCH  15  23
ATOM     23  CB  SER A   6       6.190 -27.406  -8.978  0.00  0.00    +0.166 C 
BRANCH  23  24
ATOM     24  OG  SER A   6       5.497 -27.380  -7.733  0.00  0.00    -0.380 OA
ATOM     25  H   SER A   6       5.324 -28.308  -7.434  0.00  0.00    +0.211 HD
ENDBRANCH  23  24
ENDBRANCH  15  23
ENDBRANCH  12  15
ENDBRANCH  10  11
BRANCH  10  26
ATOM     26  CB  GLU A   5      10.585 -24.124  -8.535  0.00  0.00    +0.041 C 
BRANCH  26  27
ATOM     27  CG  GLU A   5      11.715 -23.352  -7.902  0.00  0.00    +0.116 C 
BRANCH  27  28
ATOM     28  CD  GLU A   5      12.850 -23.113  -8.870  0.00  0.00    +0.365 C 
ATOM     29  OE2 GLU A   5      13.856 -23.854  -8.795  0.00  0.00    -0.246 OA
ATOM     30  OE1 GLU A   5      12.726 -22.190  -9.708  0.00  0.00    -0.246 OA
ENDBRANCH  27  28
ENDBRANCH  26  27
ENDBRANCH  10  26
ENDBRANCH   8  10
ENDBRANCH   5   6
ENDBRANCH   2   5
BRANCH   1  31
ATOM     31  CA  GLU A   3      11.161 -24.452  -2.805  0.00  0.00    +0.149 C 
BRANCH  31  33
ATOM     32  C   ASP A   2      12.471 -25.348  -4.640  0.00  0.00    +0.241 C 
ATOM     33  N   GLU A   3      12.412 -24.610  -3.536  0.00  0.00    -0.297 N 
ATOM     34  H   GLU A   3      13.271 -24.138  -3.189  0.00  0.00    +0.150 HD
ATOM     35  O   ASP A   2      11.482 -25.921  -5.108  0.00  0.00    -0.273 OA
BRANCH  32  36
ATOM     36  CA  ASP A   2      13.832 -25.461  -5.333  0.00  0.00    +0.160 C 
BRANCH  36  39
ATOM     37  C   GLN A   1      13.381 -27.249  -6.909  0.00  0.00    +0.238 C 
ATOM     38  O   GLN A   1      13.379 -28.095  -6.017  0.00  0.00    -0.274 OA
ATOM     39  N   ASP A   2      13.595 -25.959  -6.680  0.00  0.00    -0.297 N 
ATOM     40  H   ASP A   2      13.593 -25.292  -7.478  0.00  0.00    +0.150 HD
BRANCH  37  41
ATOM     41  CA  GLN A   1      13.131 -27.640  -8.357  0.00  0.00    +0.145 C 
BRANCH  41  42
ATOM     42  N   GLN A   1      13.979 -28.750  -8.778  0.00  0.00    -0.238 NA
ATOM     43  H   GLN A   1      13.780 -29.706  -8.419  0.00  0.00    +0.142 HD
ENDBRANCH  41  42
BRANCH  41  44
ATOM     44  CB  GLN A   1      11.654 -27.998  -8.529  0.00  0.00    +0.036 C 
BRANCH  44  45
ATOM     45  CG  GLN A   1      11.178 -27.935  -9.968  0.00  0.00    +0.087 C 
BRANCH  45  46
ATOM     46  CD  GLN A   1       9.746 -28.394 -10.132  0.00  0.00    +0.219 C 
ATOM     47  NE2 GLN A   1       9.191 -28.972  -9.078  0.00  0.00    -0.329 N 
ATOM     48 HE21 GLN A   1       9.736 -29.085  -8.200  0.00  0.00    +0.145 HD
ATOM     49 HE22 GLN A   1       8.210 -29.313  -9.128  0.00  0.00    +0.145 HD
ATOM     50  OE1 GLN A   1       9.145 -28.235 -11.196  0.00  0.00    -0.275 OA
ENDBRANCH  45  46
ENDBRANCH  44  45
ENDBRANCH  41  44
ENDBRANCH  37  41
ENDBRANCH  36  39
BRANCH  36  51
ATOM     51  CB  ASP A   2      14.515 -24.089  -5.389  0.00  0.00    +0.143 C 
BRANCH  51  52
ATOM     52  CG  ASP A   2      15.459 -23.857  -4.216  0.00  0.00    +0.367 C 
ATOM     53  OD2 ASP A   2      15.095 -24.211  -3.070  0.00  0.00    -0.246 OA
ATOM     54  OD1 ASP A   2      16.561 -23.311  -4.444  0.00  0.00    -0.246 OA
ENDBRANCH  51  52
ENDBRANCH  36  51
ENDBRANCH  32  36
ENDBRANCH  31  33
BRANCH  31  55
ATOM     55  CB  GLU A   3      11.401 -23.739  -1.472  0.00  0.00    +0.041 C 
BRANCH  55  56
ATOM     56  CG  GLU A   3      12.548 -24.306  -0.647  0.00  0.00    +0.116 C 
BRANCH  56  57
ATOM     57  CD  GLU A   3      12.486 -23.886   0.820  0.00  0.00    +0.365 C 
ATOM     58  OE2 GLU A   3      12.889 -24.695   1.683  0.00  0.00    -0.246 OA
ATOM     59  OE1 GLU A   3      12.054 -22.749   1.110  0.00  0.00    -0.246 OA
ENDBRANCH  56  57
ENDBRANCH  55  56
ENDBRANCH  31  55
ENDBRANCH   1  31
TORSDOF 27
REMARK  Name = ../refined-set-2016/3ckb/3ckb_pocket.pdb
REMARK  146 active torsions:
REMARK  status: ('A' for Active; 'I' for Inactive)
REMARK    1  A    between atoms: _1  and  _3
REMARK    2  A    between atoms: _3  and  _4
REMARK    3  A    between atoms: _3  and  _6
REMARK    4  A    between atoms: _6  and  _7
REMARK    5  A    between atoms: _7  and  _8
REMARK    6  A    between atoms: _13  and  _15
REMARK    7  A    between atoms: _15  and  _16
REMARK    8  A    between atoms: _15  and  _18
REMARK    9  A    between atoms: _18  and  _19
REMARK   10  A    between atoms: _22  and  _24
REMARK   11  A    between atoms: _24  and  _25
REMARK   12  A    between atoms: _24  and  _27
REMARK   13  A    between atoms: _27  and  _28
REMARK   14  A    between atoms: _28  and  _29
REMARK   15  A    between atoms: _32  and  _34
REMARK   16  A    between atoms: _34  and  _35
REMARK   17  A    between atoms: _37  and  _39
REMARK   18  A    between atoms: _39  and  _40
REMARK   19  A    between atoms: _39  and  _42
REMARK   20  A    between atoms: _42  and  _43
REMARK   21  A    between atoms: _43  and  _44
REMARK   22  A    between atoms: _47  and  _49
REMARK   23  A    between atoms: _49  and  _50
REMARK   24  A    between atoms: _49  and  _52
REMARK   25  A    between atoms: _52  and  _53
REMARK   26  A    between atoms: _55  and  _57
REMARK   27  A    between atoms: _57  and  _58
REMARK   28  A    between atoms: _60  and  _62
REMARK   29  A    between atoms: _62  and  _63
REMARK   30  A    between atoms: _62  and  _65
REMARK   31  A    between atoms: _65  and  _66
REMARK   32  A    between atoms: _66  and  _67
REMARK   33  A    between atoms: _67  and  _68
REMARK   34  A    between atoms: _77  and  _79
REMARK   35  A    between atoms: _79  and  _80
REMARK   36  A    between atoms: _79  and  _82
REMARK   37  A    between atoms: _82  and  _83
REMARK   38  A    between atoms: _88  and  _90
REMARK   39  A    between atoms: _90  and  _91
REMARK   40  A    between atoms: _90  and  _93
REMARK   41  A    between atoms: _93  and  _94
REMARK   42  A    between atoms: _104  and  _106
REMARK   43  A    between atoms: _106  and  _107
REMARK   44  A    between atoms: _110  and  _112
REMARK   45  A    between atoms: _112  and  _113
REMARK   46  A    between atoms: _112  and  _115
REMARK   47  A    between atoms: _115  and  _116
REMARK   48  A    between atoms: _126  and  _128
REMARK   49  A    between atoms: _128  and  _129
REMARK   50  A    between atoms: _128  and  _131
REMARK   51  A    between atoms: _131  and  _132
REMARK   52  A    between atoms: _132  and  _133
REMARK   53  A    between atoms: _138  and  _140
REMARK   54  A    between atoms: _140  and  _141
REMARK   55  A    between atoms: _140  and  _143
REMARK   56  A    between atoms: _143  and  _144
REMARK   57  A    between atoms: _144  and  _145
REMARK   58  A    between atoms: _145  and  _146
REMARK   59  A    between atoms: _146  and  _147
REMARK   60  A    between atoms: _151  and  _153
REMARK   61  A    between atoms: _153  and  _154
REMARK   62  A    between atoms: _153  and  _156
REMARK   63  A    between atoms: _156  and  _157
REMARK   64  A    between atoms: _162  and  _164
REMARK   65  A    between atoms: _164  and  _165
REMARK   66  A    between atoms: _164  and  _167
REMARK   67  A    between atoms: _167  and  _168
REMARK   68  A    between atoms: _168  and  _169
REMARK   69  A    between atoms: _174  and  _176
REMARK   70  A    between atoms: _176  and  _177
REMARK   71  A    between atoms: _176  and  _179
REMARK   72  A    between atoms: _179  and  _180
REMARK   73  A    between atoms: _183  and  _185
REMARK   74  A    between atoms: _185  and  _186
REMARK   75  A    between atoms: _185  and  _188
REMARK   76  A    between atoms: _188  and  _189
REMARK   77  A    between atoms: _189  and  _190
REMARK   78  A    between atoms: _190  and  _191
REMARK   79  A    between atoms: _200  and  _202
REMARK   80  A    between atoms: _202  and  _203
REMARK   81  A    between atoms: _202  and  _205
REMARK   82  A    between atoms: _205  and  _206
REMARK   83  A    between atoms: _216  and  _218
REMARK   84  A    between atoms: _218  and  _219
REMARK   85  A    between atoms: _218  and  _221
REMARK   86  A    between atoms: _221  and  _222
REMARK   87  A    between atoms: _227  and  _229
REMARK   88  A    between atoms: _229  and  _230
REMARK   89  A    between atoms: _229  and  _232
REMARK   90  A    between atoms: _232  and  _233
REMARK   91  A    between atoms: _238  and  _239
REMARK   92  A    between atoms: _241  and  _243
REMARK   93  A    between atoms: _243  and  _244
REMARK   94  A    between atoms: _246  and  _248
REMARK   95  A    between atoms: _248  and  _249
REMARK   96  A    between atoms: _248  and  _251
REMARK   97  A    between atoms: _251  and  _252
REMARK   98  A    between atoms: _255  and  _257
REMARK   99  A    between atoms: _257  and  _258
REMARK  100  A    between atoms: _257  and  _260
REMARK  101  A    between atoms: _260  and  _261
REMARK  102  A    between atoms: _266  and  _267
REMARK  103  A    between atoms: _269  and  _271
REMARK  104  A    between atoms: _271  and  _272
REMARK  105  A    between atoms: _271  and  _274
REMARK  106  A    between atoms: _276  and  _278
REMARK  107  A    between atoms: _278  and  _279
REMARK  108  A    between atoms: _281  and  _283
REMARK  109  A    between atoms: _283  and  _284
REMARK  110  A    between atoms: _283  and  _286
REMARK  111  A    between atoms: _286  and  _287
REMARK  112  A    between atoms: _287  and  _288
REMARK  113  A    between atoms: _288  and  _289
REMARK  114  A    between atoms: _298  and  _300
REMARK  115  A    between atoms: _300  and  _301
REMARK  116  A    between atoms: _300  and  _303
REMARK  117  A    between atoms: _306  and  _308
REMARK  118  A    between atoms: _308  and  _309
REMARK  119  A    between atoms: _308  and  _311
REMARK  120  A    between atoms: _311  and  _312
REMARK  121  A    between atoms: _317  and  _319
REMARK  122  A    between atoms: _319  and  _320
REMARK  123  A    between atoms: _322  and  _324
REMARK  124  A    between atoms: _324  and  _325
REMARK  125  A    between atoms: _324  and  _327
REMARK  126  A    between atoms: _327  and  _328
REMARK  127  A    between atoms: _338  and  _340
REMARK  128  A    between atoms: _340  and  _341
REMARK  129  A    between atoms: _340  and  _343
REMARK  130  A    between atoms: _343  and  _344
REMARK  131  A    between atoms: _346  and  _348
REMARK  132  A    between atoms: _348  and  _349
REMARK  133  A    between atoms: _348  and  _351
REMARK  134  A    between atoms: _353  and  _355
REMARK  135  A    between atoms: _355  and  _356
REMARK  136  A    between atoms: _355  and  _358
REMARK  137  A    between atoms: _358  and  _359
REMARK  138  A    between atoms: _362  and  _364
REMARK  139  A    between atoms: _364  and  _365
REMARK  140  A    between atoms: _364  and  _367
REMARK  141  A    between atoms: _367  and  _368
REMARK  142  A    between atoms: _374  and  _376
REMARK  143  A    between atoms: _376  and  _377
REMARK  144  A    between atoms: _376  and  _379
REMARK  145  A    between atoms: _379  and  _380
REMARK  146  A    between atoms: _385  and  _386
REMARK                            x       y       z     vdW  Elec       q    Type
REMARK                         _______ _______ _______ _____ _____    ______ ____
ROOT
ATOM      1  NE  ARG A   1       7.282 -19.182  -5.986  0.00  0.00    -0.265 N 
ATOM      2  CZ  ARG A   1       8.105 -19.508  -4.995  0.00  0.00    +0.342 C 
ATOM      3  NH2 ARG A   1       7.782 -19.211  -3.742  0.00  0.00    -0.292 N 
ATOM      4 HH21 ARG A   1       8.425 -19.465  -2.965  0.00  0.00    +0.255 HD
ATOM      5 HH22 ARG A   1       6.886 -18.724  -3.537  0.00  0.00    +0.255 HD
ATOM      6  NH1 ARG A   1       9.246 -20.133  -5.254  0.00  0.00    -0.292 N 
ATOM      7 HH11 ARG A   1       9.888 -20.387  -4.476  0.00  0.00    +0.255 HD
ATOM      8 HH12 ARG A   1       9.499 -20.369  -6.235  0.00  0.00    +0.255 HD
ATOM      9  HE  ARG A   1       6.400 -18.689  -5.741  0.00  0.00    +0.259 HD
ENDROOT
BRANCH   1  10
ATOM     10  CD  ARG A   1       7.532 -19.469  -7.399  0.00  0.00    +0.174 C 
BRANCH  10  11
ATOM     11  CG  ARG A   1       6.421 -18.929  -8.283  0.00  0.00    +0.045 C 
BRANCH  11  12
ATOM     12  CB  ARG A   1       6.511 -19.451  -9.706  0.00  0.00    +0.029 C 
BRANCH  12  13
ATOM     13  CA  ARG A   1       5.489 -18.813 -10.649  0.00  0.00    +0.133 C 
BRANCH  13  14
ATOM     14  N   ARG A   1       4.132 -19.081 -10.181  0.00  0.00    -0.239 NA
ATOM     15  H   ARG A   1       3.981 -19.697  -9.357  0.00  0.00    +0.142 HD
ENDBRANCH  13  14
BRANCH  13  16
ATOM     16  C   ARG A   1       5.730 -19.291 -12.084  0.00  0.00    +0.224 C 
ATOM     17  O   ARG A   1       6.189 -18.520 -12.931  0.00  0.00    -0.287 OA
ENDBRANCH  13  16
ENDBRANCH  12  13
ENDBRANCH  11  12
ENDBRANCH  10  11
ENDBRANCH   1  10
TORSDOF 6
REMARK  Name = ../refined-set-2016/3ckb/3ckb_pocket.pdb
REMARK  146 active torsions:
REMARK  status: ('A' for Active; 'I' for Inactive)
REMARK    1  A    between atoms: _1  and  _3
REMARK    2  A    between atoms: _3  and  _4
REMARK    3  A    between atoms: _3  and  _6
REMARK    4  A    between atoms: _6  and  _7
REMARK    5  A    between atoms: _7  and  _8
REMARK    6  A    between atoms: _13  and  _15
REMARK    7  A    between atoms: _15  and  _16
REMARK    8  A    between atoms: _15  and  _18
REMARK    9  A    between atoms: _18  and  _19
REMARK   10  A    between atoms: _22  and  _24
REMARK   11  A    between atoms: _24  and  _25
REMARK   12  A    between atoms: _24  and  _27
REMARK   13  A    between atoms: _27  and  _28
REMARK   14  A    between atoms: _28  and  _29
REMARK   15  A    between atoms: _32  and  _34
REMARK   16  A    between atoms: _34  and  _35
REMARK   17  A    between atoms: _37  and  _39
REMARK   18  A    between atoms: _39  and  _40
REMARK   19  A    between atoms: _39  and  _42
REMARK   20  A    between atoms: _42  and  _43
REMARK   21  A    between atoms: _43  and  _44
REMARK   22  A    between atoms: _47  and  _49
REMARK   23  A    between atoms: _49  and  _50
REMARK   24  A    between atoms: _49  and  _52
REMARK   25  A    between atoms: _52  and  _53
REMARK   26  A    between atoms: _55  and  _57
REMARK   27  A    between atoms: _57  and  _58
REMARK   28  A    between atoms: _60  and  _62
REMARK   29  A    between atoms: _62  and  _63
REMARK   30  A    between atoms: _62  and  _65
REMARK   31  A    between atoms: _65  and  _66
REMARK   32  A    between atoms: _66  and  _67
REMARK   33  A    between atoms: _67  and  _68
REMARK   34  A    between atoms: _77  and  _79
REMARK   35  A    between atoms: _79  and  _80
REMARK   36  A    between atoms: _79  and  _82
REMARK   37  A    between atoms: _82  and  _83
REMARK   38  A    between atoms: _88  and  _90
REMARK   39  A    between atoms: _90  and  _91
REMARK   40  A    between atoms: _90  and  _93
REMARK   41  A    between atoms: _93  and  _94
REMARK   42  A    between atoms: _104  and  _106
REMARK   43  A    between atoms: _106  and  _107
REMARK   44  A    between atoms: _110  and  _112
REMARK   45  A    between atoms: _112  and  _113
REMARK   46  A    between atoms: _112  and  _115
REMARK   47  A    between atoms: _115  and  _116
REMARK   48  A    between atoms: _126  and  _128
REMARK   49  A    between atoms: _128  and  _129
REMARK   50  A    between atoms: _128  and  _131
REMARK   51  A    between atoms: _131  and  _132
REMARK   52  A    between atoms: _132  and  _133
REMARK   53  A    between atoms: _138  and  _140
REMARK   54  A    between atoms: _140  and  _141
REMARK   55  A    between atoms: _140  and  _143
REMARK   56  A    between atoms: _143  and  _144
REMARK   57  A    between atoms: _144  and  _145
REMARK   58  A    between atoms: _145  and  _146
REMARK   59  A    between atoms: _146  and  _147
REMARK   60  A    between atoms: _151  and  _153
REMARK   61  A    between atoms: _153  and  _154
REMARK   62  A    between atoms: _153  and  _156
REMARK   63  A    between atoms: _156  and  _157
REMARK   64  A    between atoms: _162  and  _164
REMARK   65  A    between atoms: _164  and  _165
REMARK   66  A    between atoms: _164  and  _167
REMARK   67  A    between atoms: _167  and  _168
REMARK   68  A    between atoms: _168  and  _169
REMARK   69  A    between atoms: _174  and  _176
REMARK   70  A    between atoms: _176  and  _177
REMARK   71  A    between atoms: _176  and  _179
REMARK   72  A    between atoms: _179  and  _180
REMARK   73  A    between atoms: _183  and  _185
REMARK   74  A    between atoms: _185  and  _186
REMARK   75  A    between atoms: _185  and  _188
REMARK   76  A    between atoms: _188  and  _189
REMARK   77  A    between atoms: _189  and  _190
REMARK   78  A    between atoms: _190  and  _191
REMARK   79  A    between atoms: _200  and  _202
REMARK   80  A    between atoms: _202  and  _203
REMARK   81  A    between atoms: _202  and  _205
REMARK   82  A    between atoms: _205  and  _206
REMARK   83  A    between atoms: _216  and  _218
REMARK   84  A    between atoms: _218  and  _219
REMARK   85  A    between atoms: _218  and  _221
REMARK   86  A    between atoms: _221  and  _222
REMARK   87  A    between atoms: _227  and  _229
REMARK   88  A    between atoms: _229  and  _230
REMARK   89  A    between atoms: _229  and  _232
REMARK   90  A    between atoms: _232  and  _233
REMARK   91  A    between atoms: _238  and  _239
REMARK   92  A    between atoms: _241  and  _243
REMARK   93  A    between atoms: _243  and  _244
REMARK   94  A    between atoms: _246  and  _248
REMARK   95  A    between atoms: _248  and  _249
REMARK   96  A    between atoms: _248  and  _251
REMARK   97  A    between atoms: _251  and  _252
REMARK   98  A    between atoms: _255  and  _257
REMARK   99  A    between atoms: _257  and  _258
REMARK  100  A    between atoms: _257  and  _260
REMARK  101  A    between atoms: _260  and  _261
REMARK  102  A    between atoms: _266  and  _267
REMARK  103  A    between atoms: _269  and  _271
REMARK  104  A    between atoms: _271  and  _272
REMARK  105  A    between atoms: _271  and  _274
REMARK  106  A    between atoms: _276  and  _278
REMARK  107  A    between atoms: _278  and  _279
REMARK  108  A    between atoms: _281  and  _283
REMARK  109  A    between atoms: _283  and  _284
REMARK  110  A    between atoms: _283  and  _286
REMARK  111  A    between atoms: _286  and  _287
REMARK  112  A    between atoms: _287  and  _288
REMARK  113  A    between atoms: _288  and  _289
REMARK  114  A    between atoms: _298  and  _300
REMARK  115  A    between atoms: _300  and  _301
REMARK  116  A    between atoms: _300  and  _303
REMARK  117  A    between atoms: _306  and  _308
REMARK  118  A    between atoms: _308  and  _309
REMARK  119  A    between atoms: _308  and  _311
REMARK  120  A    between atoms: _311  and  _312
REMARK  121  A    between atoms: _317  and  _319
REMARK  122  A    between atoms: _319  and  _320
REMARK  123  A    between atoms: _322  and  _324
REMARK  124  A    between atoms: _324  and  _325
REMARK  125  A    between atoms: _324  and  _327
REMARK  126  A    between atoms: _327  and  _328
REMARK  127  A    between atoms: _338  and  _340
REMARK  128  A    between atoms: _340  and  _341
REMARK  129  A    between atoms: _340  and  _343
REMARK  130  A    between atoms: _343  and  _344
REMARK  131  A    between atoms: _346  and  _348
REMARK  132  A    between atoms: _348  and  _349
REMARK  133  A    between atoms: _348  and  _351
REMARK  134  A    between atoms: _353  and  _355
REMARK  135  A    between atoms: _355  and  _356
REMARK  136  A    between atoms: _355  and  _358
REMARK  137  A    between atoms: _358  and  _359
REMARK  138  A    between atoms: _362  and  _364
REMARK  139  A    between atoms: _364  and  _365
REMARK  140  A    between atoms: _364  and  _367
REMARK  141  A    between atoms: _367  and  _368
REMARK  142  A    between atoms: _374  and  _376
REMARK  143  A    between atoms: _376  and  _377
REMARK  144  A    between atoms: _376  and  _379
REMARK  145  A    between atoms: _379  and  _380
REMARK  146  A    between atoms: _385  and  _386
REMARK                            x       y       z     vdW  Elec       q    Type
REMARK                         _______ _______ _______ _____ _____    ______ ____
ROOT
ATOM      1  CB  ASN A   1       8.668 -17.709 -15.255  0.00  0.00    +0.110 C 
ENDROOT
BRANCH   1   2
ATOM      2  CG  ASN A   1       9.160 -17.394 -13.838  0.00  0.00    +0.221 C 
ATOM      3  ND2 ASN A   1       9.666 -18.410 -13.141  0.00  0.00    -0.329 N 
ATOM      4 HD21 ASN A   1      10.032 -18.251 -12.181  0.00  0.00    +0.145 HD
ATOM      5 HD22 ASN A   1       9.695 -19.363 -13.557  0.00  0.00    +0.145 HD
ATOM      6  OD1 ASN A   1       9.102 -16.244 -13.390  0.00  0.00    -0.275 OA
ENDBRANCH   1   2
BRANCH   1   7
ATOM      7  CA  ASN A   1       7.714 -16.640 -15.790  0.00  0.00    +0.142 C 
BRANCH   7   8
ATOM      8  N   ASN A   1       6.447 -16.685 -15.070  0.00  0.00    -0.239 NA
ATOM      9  H   ASN A   1       6.273 -17.442 -14.378  0.00  0.00    +0.142 HD
ENDBRANCH   7   8
BRANCH   7  10
ATOM     10  C   ASN A   1       7.538 -16.771 -17.302  0.00  0.00    +0.225 C 
ATOM     11  O   ASN A   1       8.180 -16.050 -18.068  0.00  0.00    -0.287 OA
ENDBRANCH   7  10
ENDBRANCH   1   7
TORSDOF 4
REMARK  Name = ../refined-set-2016/3ckb/3ckb_pocket.pdb
REMARK  146 active torsions:
REMARK  status: ('A' for Active; 'I' for Inactive)
REMARK    1  A    between atoms: _1  and  _3
REMARK    2  A    between atoms: _3  and  _4
REMARK    3  A    between atoms: _3  and  _6
REMARK    4  A    between atoms: _6  and  _7
REMARK    5  A    between atoms: _7  and  _8
REMARK    6  A    between atoms: _13  and  _15
REMARK    7  A    between atoms: _15  and  _16
REMARK    8  A    between atoms: _15  and  _18
REMARK    9  A    between atoms: _18  and  _19
REMARK   10  A    between atoms: _22  and  _24
REMARK   11  A    between atoms: _24  and  _25
REMARK   12  A    between atoms: _24  and  _27
REMARK   13  A    between atoms: _27  and  _28
REMARK   14  A    between atoms: _28  and  _29
REMARK   15  A    between atoms: _32  and  _34
REMARK   16  A    between atoms: _34  and  _35
REMARK   17  A    between atoms: _37  and  _39
REMARK   18  A    between atoms: _39  and  _40
REMARK   19  A    between atoms: _39  and  _42
REMARK   20  A    between atoms: _42  and  _43
REMARK   21  A    between atoms: _43  and  _44
REMARK   22  A    between atoms: _47  and  _49
REMARK   23  A    between atoms: _49  and  _50
REMARK   24  A    between atoms: _49  and  _52
REMARK   25  A    between atoms: _52  and  _53
REMARK   26  A    between atoms: _55  and  _57
REMARK   27  A    between atoms: _57  and  _58
REMARK   28  A    between atoms: _60  and  _62
REMARK   29  A    between atoms: _62  and  _63
REMARK   30  A    between atoms: _62  and  _65
REMARK   31  A    between atoms: _65  and  _66
REMARK   32  A    between atoms: _66  and  _67
REMARK   33  A    between atoms: _67  and  _68
REMARK   34  A    between atoms: _77  and  _79
REMARK   35  A    between atoms: _79  and  _80
REMARK   36  A    between atoms: _79  and  _82
REMARK   37  A    between atoms: _82  and  _83
REMARK   38  A    between atoms: _88  and  _90
REMARK   39  A    between atoms: _90  and  _91
REMARK   40  A    between atoms: _90  and  _93
REMARK   41  A    between atoms: _93  and  _94
REMARK   42  A    between atoms: _104  and  _106
REMARK   43  A    between atoms: _106  and  _107
REMARK   44  A    between atoms: _110  and  _112
REMARK   45  A    between atoms: _112  and  _113
REMARK   46  A    between atoms: _112  and  _115
REMARK   47  A    between atoms: _115  and  _116
REMARK   48  A    between atoms: _126  and  _128
REMARK   49  A    between atoms: _128  and  _129
REMARK   50  A    between atoms: _128  and  _131
REMARK   51  A    between atoms: _131  and  _132
REMARK   52  A    between atoms: _132  and  _133
REMARK   53  A    between atoms: _138  and  _140
REMARK   54  A    between atoms: _140  and  _141
REMARK   55  A    between atoms: _140  and  _143
REMARK   56  A    between atoms: _143  and  _144
REMARK   57  A    between atoms: _144  and  _145
REMARK   58  A    between atoms: _145  and  _146
REMARK   59  A    between atoms: _146  and  _147
REMARK   60  A    between atoms: _151  and  _153
REMARK   61  A    between atoms: _153  and  _154
REMARK   62  A    between atoms: _153  and  _156
REMARK   63  A    between atoms: _156  and  _157
REMARK   64  A    between atoms: _162  and  _164
REMARK   65  A    between atoms: _164  and  _165
REMARK   66  A    between atoms: _164  and  _167
REMARK   67  A    between atoms: _167  and  _168
REMARK   68  A    between atoms: _168  and  _169
REMARK   69  A    between atoms: _174  and  _176
REMARK   70  A    between atoms: _176  and  _177
REMARK   71  A    between atoms: _176  and  _179
REMARK   72  A    between atoms: _179  and  _180
REMARK   73  A    between atoms: _183  and  _185
REMARK   74  A    between atoms: _185  and  _186
REMARK   75  A    between atoms: _185  and  _188
REMARK   76  A    between atoms: _188  and  _189
REMARK   77  A    between atoms: _189  and  _190
REMARK   78  A    between atoms: _190  and  _191
REMARK   79  A    between atoms: _200  and  _202
REMARK   80  A    between atoms: _202  and  _203
REMARK   81  A    between atoms: _202  and  _205
REMARK   82  A    between atoms: _205  and  _206
REMARK   83  A    between atoms: _216  and  _218
REMARK   84  A    between atoms: _218  and  _219
REMARK   85  A    between atoms: _218  and  _221
REMARK   86  A    between atoms: _221  and  _222
REMARK   87  A    between atoms: _227  and  _229
REMARK   88  A    between atoms: _229  and  _230
REMARK   89  A    between atoms: _229  and  _232
REMARK   90  A    between atoms: _232  and  _233
REMARK   91  A    between atoms: _238  and  _239
REMARK   92  A    between atoms: _241  and  _243
REMARK   93  A    between atoms: _243  and  _244
REMARK   94  A    between atoms: _246  and  _248
REMARK   95  A    between atoms: _248  and  _249
REMARK   96  A    between atoms: _248  and  _251
REMARK   97  A    between atoms: _251  and  _252
REMARK   98  A    between atoms: _255  and  _257
REMARK   99  A    between atoms: _257  and  _258
REMARK  100  A    between atoms: _257  and  _260
REMARK  101  A    between atoms: _260  and  _261
REMARK  102  A    between atoms: _266  and  _267
REMARK  103  A    between atoms: _269  and  _271
REMARK  104  A    between atoms: _271  and  _272
REMARK  105  A    between atoms: _271  and  _274
REMARK  106  A    between atoms: _276  and  _278
REMARK  107  A    between atoms: _278  and  _279
REMARK  108  A    between atoms: _281  and  _283
REMARK  109  A    between atoms: _283  and  _284
REMARK  110  A    between atoms: _283  and  _286
REMARK  111  A    between atoms: _286  and  _287
REMARK  112  A    between atoms: _287  and  _288
REMARK  113  A    between atoms: _288  and  _289
REMARK  114  A    between atoms: _298  and  _300
REMARK  115  A    between atoms: _300  and  _301
REMARK  116  A    between atoms: _300  and  _303
REMARK  117  A    between atoms: _306  and  _308
REMARK  118  A    between atoms: _308  and  _309
REMARK  119  A    between atoms: _308  and  _311
REMARK  120  A    between atoms: _311  and  _312
REMARK  121  A    between atoms: _317  and  _319
REMARK  122  A    between atoms: _319  and  _320
REMARK  123  A    between atoms: _322  and  _324
REMARK  124  A    between atoms: _324  and  _325
REMARK  125  A    between atoms: _324  and  _327
REMARK  126  A    between atoms: _327  and  _328
REMARK  127  A    between atoms: _338  and  _340
REMARK  128  A    between atoms: _340  and  _341
REMARK  129  A    between atoms: _340  and  _343
REMARK  130  A    between atoms: _343  and  _344
REMARK  131  A    between atoms: _346  and  _348
REMARK  132  A    between atoms: _348  and  _349
REMARK  133  A    between atoms: _348  and  _351
REMARK  134  A    between atoms: _353  and  _355
REMARK  135  A    between atoms: _355  and  _356
REMARK  136  A    between atoms: _355  and  _358
REMARK  137  A    between atoms: _358  and  _359
REMARK  138  A    between atoms: _362  and  _364
REMARK  139  A    between atoms: _364  and  _365
REMARK  140  A    between atoms: _364  and  _367
REMARK  141  A    between atoms: _367  and  _368
REMARK  142  A    between atoms: _374  and  _376
REMARK  143  A    between atoms: _376  and  _377
REMARK  144  A    between atoms: _376  and  _379
REMARK  145  A    between atoms: _379  and  _380
REMARK  146  A    between atoms: _385  and  _386
REMARK                            x       y       z     vdW  Elec       q    Type
REMARK                         _______ _______ _______ _____ _____    ______ ____
ROOT
ATOM      1  CA  GLN A   4      21.399 -15.879 -16.090  0.00  0.00    +0.149 C 
ENDROOT
BRANCH   1   2
ATOM      2  C   GLN A   4      22.001 -17.285 -16.117  0.00  0.00    +0.241 C 
ATOM      3  N   LYS A   5      22.679 -17.688 -15.047  0.00  0.00    -0.297 N 
ATOM      4  H   LYS A   5      22.788 -17.049 -14.234  0.00  0.00    +0.150 HD
ATOM      5  O   GLN A   4      21.845 -18.002 -17.099  0.00  0.00    -0.273 OA
BRANCH   3   6
ATOM      6  CA  LYS A   5      23.271 -19.021 -15.005  0.00  0.00    +0.149 C 
BRANCH   6   7
ATOM      7  C   LYS A   5      22.241 -20.095 -14.658  0.00  0.00    +0.241 C 
ATOM      8  N   ASN A   6      21.173 -19.707 -13.959  0.00  0.00    -0.297 N 
ATOM      9  H   ASN A   6      21.087 -18.713 -13.665  0.00  0.00    +0.150 HD
ATOM     10  O   LYS A   5      22.414 -21.264 -15.016  0.00  0.00    -0.273 OA
BRANCH   8  11
ATOM     11  CA  ASN A   6      20.121 -20.659 -13.599  0.00  0.00    +0.158 C 
BRANCH  11  12
ATOM     12  C   ASN A   6      19.693 -21.377 -14.878  0.00  0.00    +0.241 C 
ATOM     13  N   GLN A   7      19.329 -22.649 -14.760  0.00  0.00    -0.298 N 
ATOM     14  H   GLN A   7      19.323 -23.102 -13.824  0.00  0.00    +0.150 HD
ATOM     15  O   ASN A   6      19.681 -20.781 -15.958  0.00  0.00    -0.273 OA
BRANCH  13  16
ATOM     16  CA  GLN A   7      18.939 -23.409 -15.934  0.00  0.00    +0.137 C 
BRANCH  16  17
ATOM     17  C   GLN A   7      17.725 -22.875 -16.678  0.00  0.00    +0.227 C 
ATOM     18  O   GLN A   7      16.706 -22.535 -16.076  0.00  0.00    -0.286 OA
ENDBRANCH  16  17
BRANCH  16  19
ATOM     19  CB  GLN A   7      18.690 -24.881 -15.579  0.00  0.00    +0.037 C 
BRANCH  19  20
ATOM     20  CG  GLN A   7      18.540 -25.764 -16.823  0.00  0.00    +0.087 C 
BRANCH  20  21
ATOM     21  CD  GLN A   7      18.264 -27.225 -16.502  0.00  0.00    +0.219 C 
ATOM     22  OE1 GLN A   7      18.987 -27.854 -15.728  0.00  0.00    -0.275 OA
ATOM     23  NE2 GLN A   7      17.222 -27.776 -17.115  0.00  0.00    -0.329 N 
ATOM     24 HE21 GLN A   7      16.990 -28.776 -16.949  0.00  0.00    +0.145 HD
ATOM     25 HE22 GLN A   7      16.638 -27.207 -17.761  0.00  0.00    +0.145 HD
ENDBRANCH  20  21
ENDBRANCH  19  20
ENDBRANCH  16  19
ENDBRANCH  13  16
ENDBRANCH  11  12
BRANCH  11  26
ATOM     26  CB  ASN A   6      18.911 -19.940 -12.984  0.00  0.00    +0.114 C 
BRANCH  26  27
ATOM     27  CG  ASN A   6      19.178 -19.418 -11.571  0.00  0.00    +0.222 C 
ATOM     28  OD1 ASN A   6      18.298 -18.822 -10.942  0.00  0.00    -0.275 OA
ATOM     29  ND2 ASN A   6      20.389 -19.639 -11.071  0.00  0.00    -0.329 N 
ATOM     30 HD21 ASN A   6      20.626 -19.305 -10.115  0.00  0.00    +0.145 HD
ATOM     31 HD22 ASN A   6      21.100 -20.146 -11.636  0.00  0.00    +0.145 HD
ENDBRANCH  26  27
ENDBRANCH  11  26
ENDBRANCH   8  11
ENDBRANCH   6   7
BRANCH   6  32
ATOM     32  CB  LYS A   5      24.432 -19.062 -14.007  0.00  0.00    +0.029 C 
BRANCH  32  33
ATOM     33  CG  LYS A   5      25.674 -18.325 -14.503  0.00  0.00    +0.000 C 
BRANCH  33  34
ATOM     34  CD  LYS A   5      26.736 -18.195 -13.409  0.00  0.00    -0.024 C 
BRANCH  34  35
ATOM     35  CE  LYS A   5      27.900 -17.318 -13.875  0.00  0.00    -0.086 C 
BRANCH  35  36
ATOM     36  NZ  LYS A   5      28.828 -16.966 -12.755  0.00  0.00    +0.380 N 
ATOM     37  HZ1 LYS A   5      28.304 -16.445 -12.023  0.00  0.00    -0.089 HD
ATOM     38  HZ2 LYS A   5      29.223 -17.837 -12.347  0.00  0.00    -0.089 HD
ATOM     39  HZ3 LYS A   5      29.600 -16.372 -13.120  0.00  0.00    -0.089 HD
ENDBRANCH  35  36
ENDBRANCH  34  35
ENDBRANCH  33  34
ENDBRANCH  32  33
ENDBRANCH   6  32
ENDBRANCH   3   6
ENDBRANCH   1   2
BRANCH   1  42
ATOM     40  C   TRP A   3      20.772 -15.729 -13.750  0.00  0.00    +0.241 C 
ATOM     41  O   TRP A   3      20.160 -16.792 -13.789  0.00  0.00    -0.273 OA
ATOM     42  N   GLN A   4      21.413 -15.222 -14.794  0.00  0.00    -0.297 N 
ATOM     43  H   GLN A   4      21.939 -14.332 -14.683  0.00  0.00    +0.150 HD
BRANCH  40  44
ATOM     44  CA  TRP A   3      20.855 -14.919 -12.471  0.00  0.00    +0.153 C 
BRANCH  44  46
ATOM     45  C   ALA A   2      20.336 -12.581 -12.781  0.00  0.00    +0.241 C 
ATOM     46  N   TRP A   3      19.922 -13.799 -12.460  0.00  0.00    -0.297 N 
ATOM     47  H   TRP A   3      18.928 -13.956 -12.199  0.00  0.00    +0.150 HD
ATOM     48  O   ALA A   2      21.496 -12.349 -13.114  0.00  0.00    -0.273 OA
BRANCH  45  49
ATOM     49  CA  ALA A   2      19.313 -11.447 -12.716  0.00  0.00    +0.149 C 
ATOM     50  CB  ALA A   2      19.425 -10.737 -11.356  0.00  0.00    +0.031 C 
BRANCH  49  52
ATOM     51  C   TRP A   1      17.495 -12.206 -14.168  0.00  0.00    +0.239 C 
ATOM     52  N   ALA A   2      17.917 -11.800 -12.974  0.00  0.00    -0.297 N 
ATOM     53  H   ALA A   2      17.230 -11.731 -12.196  0.00  0.00    +0.150 HD
ATOM     54  O   TRP A   1      18.246 -12.342 -15.135  0.00  0.00    -0.274 OA
BRANCH  51  55
ATOM     55  CA  TRP A   1      16.003 -12.485 -14.307  0.00  0.00    +0.149 C 
BRANCH  55  56
ATOM     56  N   TRP A   1      15.585 -11.657 -15.429  0.00  0.00    -0.238 NA
ATOM     57  H   TRP A   1      15.648 -12.038 -16.395  0.00  0.00    +0.142 HD
ENDBRANCH  55  56
BRANCH  55  58
ATOM     58  CB  TRP A   1      15.734 -13.960 -14.613  0.00  0.00    +0.054 C 
BRANCH  58  59
ATOM     59  CG  TRP A   1      16.052 -14.888 -13.486  0.00  0.00    -0.002 A 
ATOM     60  CD2 TRP A   1      15.234 -15.160 -12.341  0.00  0.00    +0.013 A 
ATOM     61  CE2 TRP A   1      15.932 -16.090 -11.540  0.00  0.00    +0.056 A 
ATOM     62  CZ2 TRP A   1      15.416 -16.577 -10.336  0.00  0.00    +0.017 A 
ATOM     63  CH2 TRP A   1      14.185 -16.116  -9.938  0.00  0.00    +0.001 A 
ATOM     64  CZ3 TRP A   1      13.464 -15.190 -10.711  0.00  0.00    +0.000 A 
ATOM     65  NE1 TRP A   1      17.115 -16.368 -12.171  0.00  0.00    -0.352 N 
ATOM     66  HE1 TRP A   1      17.846 -17.022 -11.825  0.00  0.00    +0.166 HD
ATOM     67  CE3 TRP A   1      13.979 -14.704 -11.912  0.00  0.00    +0.001 A 
ATOM     68  CD1 TRP A   1      17.179 -15.641 -13.337  0.00  0.00    +0.068 A 
ENDBRANCH  58  59
ENDBRANCH  55  58
ENDBRANCH  51  55
ENDBRANCH  49  52
ENDBRANCH  45  49
ENDBRANCH  44  46
BRANCH  44  69
ATOM     69  CB  TRP A   3      20.600 -15.809 -11.255  0.00  0.00    +0.057 C 
BRANCH  69  70
ATOM     70  CG  TRP A   3      20.510 -15.000 -10.016  0.00  0.00    -0.002 A 
ATOM     71  CD2 TRP A   3      21.604 -14.542  -9.218  0.00  0.00    +0.013 A 
ATOM     72  CE2 TRP A   3      21.065 -13.706  -8.212  0.00  0.00    +0.056 A 
ATOM     73  CZ2 TRP A   3      21.867 -13.081  -7.249  0.00  0.00    +0.017 A 
ATOM     74  CH2 TRP A   3      23.219 -13.304  -7.308  0.00  0.00    +0.001 A 
ATOM     75  CZ3 TRP A   3      23.787 -14.132  -8.299  0.00  0.00    +0.000 A 
ATOM     76  NE1 TRP A   3      19.708 -13.665  -8.395  0.00  0.00    -0.352 N 
ATOM     77  HE1 TRP A   3      19.035 -13.130  -7.810  0.00  0.00    +0.166 HD
ATOM     78  CE3 TRP A   3      22.990 -14.754  -9.256  0.00  0.00    +0.001 A 
ATOM     79  CD1 TRP A   3      19.382 -14.446  -9.477  0.00  0.00    +0.068 A 
ENDBRANCH  69  70
ENDBRANCH  44  69
ENDBRANCH  40  44
ENDBRANCH   1  42
BRANCH   1  80
ATOM     80  CB  GLN A   4      22.088 -14.984 -17.116  0.00  0.00    +0.039 C 
BRANCH  80  81
ATOM     81  CG  GLN A   4      21.284 -13.742 -17.472  0.00  0.00    +0.087 C 
BRANCH  81  82
ATOM     82  CD  GLN A   4      19.987 -14.083 -18.198  0.00  0.00    +0.219 C 
ATOM     83  NE2 GLN A   4      18.864 -13.569 -17.693  0.00  0.00    -0.329 N 
ATOM     84 HE21 GLN A   4      18.902 -12.974 -16.841  0.00  0.00    +0.145 HD
ATOM     85 HE22 GLN A   4      17.951 -13.763 -18.151  0.00  0.00    +0.145 HD
ATOM     86  OE1 GLN A   4      19.999 -14.795 -19.206  0.00  0.00    -0.275 OA
ENDBRANCH  81  82
ENDBRANCH  80  81
ENDBRANCH   1  80
TORSDOF 31
REMARK  Name = ../refined-set-2016/3ckb/3ckb_pocket.pdb
REMARK  146 active torsions:
REMARK  status: ('A' for Active; 'I' for Inactive)
REMARK    1  A    between atoms: _1  and  _3
REMARK    2  A    between atoms: _3  and  _4
REMARK    3  A    between atoms: _3  and  _6
REMARK    4  A    between atoms: _6  and  _7
REMARK    5  A    between atoms: _7  and  _8
REMARK    6  A    between atoms: _13  and  _15
REMARK    7  A    between atoms: _15  and  _16
REMARK    8  A    between atoms: _15  and  _18
REMARK    9  A    between atoms: _18  and  _19
REMARK   10  A    between atoms: _22  and  _24
REMARK   11  A    between atoms: _24  and  _25
REMARK   12  A    between atoms: _24  and  _27
REMARK   13  A    between atoms: _27  and  _28
REMARK   14  A    between atoms: _28  and  _29
REMARK   15  A    between atoms: _32  and  _34
REMARK   16  A    between atoms: _34  and  _35
REMARK   17  A    between atoms: _37  and  _39
REMARK   18  A    between atoms: _39  and  _40
REMARK   19  A    between atoms: _39  and  _42
REMARK   20  A    between atoms: _42  and  _43
REMARK   21  A    between atoms: _43  and  _44
REMARK   22  A    between atoms: _47  and  _49
REMARK   23  A    between atoms: _49  and  _50
REMARK   24  A    between atoms: _49  and  _52
REMARK   25  A    between atoms: _52  and  _53
REMARK   26  A    between atoms: _55  and  _57
REMARK   27  A    between atoms: _57  and  _58
REMARK   28  A    between atoms: _60  and  _62
REMARK   29  A    between atoms: _62  and  _63
REMARK   30  A    between atoms: _62  and  _65
REMARK   31  A    between atoms: _65  and  _66
REMARK   32  A    between atoms: _66  and  _67
REMARK   33  A    between atoms: _67  and  _68
REMARK   34  A    between atoms: _77  and  _79
REMARK   35  A    between atoms: _79  and  _80
REMARK   36  A    between atoms: _79  and  _82
REMARK   37  A    between atoms: _82  and  _83
REMARK   38  A    between atoms: _88  and  _90
REMARK   39  A    between atoms: _90  and  _91
REMARK   40  A    between atoms: _90  and  _93
REMARK   41  A    between atoms: _93  and  _94
REMARK   42  A    between atoms: _104  and  _106
REMARK   43  A    between atoms: _106  and  _107
REMARK   44  A    between atoms: _110  and  _112
REMARK   45  A    between atoms: _112  and  _113
REMARK   46  A    between atoms: _112  and  _115
REMARK   47  A    between atoms: _115  and  _116
REMARK   48  A    between atoms: _126  and  _128
REMARK   49  A    between atoms: _128  and  _129
REMARK   50  A    between atoms: _128  and  _131
REMARK   51  A    between atoms: _131  and  _132
REMARK   52  A    between atoms: _132  and  _133
REMARK   53  A    between atoms: _138  and  _140
REMARK   54  A    between atoms: _140  and  _141
REMARK   55  A    between atoms: _140  and  _143
REMARK   56  A    between atoms: _143  and  _144
REMARK   57  A    between atoms: _144  and  _145
REMARK   58  A    between atoms: _145  and  _146
REMARK   59  A    between atoms: _146  and  _147
REMARK   60  A    between atoms: _151  and  _153
REMARK   61  A    between atoms: _153  and  _154
REMARK   62  A    between atoms: _153  and  _156
REMARK   63  A    between atoms: _156  and  _157
REMARK   64  A    between atoms: _162  and  _164
REMARK   65  A    between atoms: _164  and  _165
REMARK   66  A    between atoms: _164  and  _167
REMARK   67  A    between atoms: _167  and  _168
REMARK   68  A    between atoms: _168  and  _169
REMARK   69  A    between atoms: _174  and  _176
REMARK   70  A    between atoms: _176  and  _177
REMARK   71  A    between atoms: _176  and  _179
REMARK   72  A    between atoms: _179  and  _180
REMARK   73  A    between atoms: _183  and  _185
REMARK   74  A    between atoms: _185  and  _186
REMARK   75  A    between atoms: _185  and  _188
REMARK   76  A    between atoms: _188  and  _189
REMARK   77  A    between atoms: _189  and  _190
REMARK   78  A    between atoms: _190  and  _191
REMARK   79  A    between atoms: _200  and  _202
REMARK   80  A    between atoms: _202  and  _203
REMARK   81  A    between atoms: _202  and  _205
REMARK   82  A    between atoms: _205  and  _206
REMARK   83  A    between atoms: _216  and  _218
REMARK   84  A    between atoms: _218  and  _219
REMARK   85  A    between atoms: _218  and  _221
REMARK   86  A    between atoms: _221  and  _222
REMARK   87  A    between atoms: _227  and  _229
REMARK   88  A    between atoms: _229  and  _230
REMARK   89  A    between atoms: _229  and  _232
REMARK   90  A    between atoms: _232  and  _233
REMARK   91  A    between atoms: _238  and  _239
REMARK   92  A    between atoms: _241  and  _243
REMARK   93  A    between atoms: _243  and  _244
REMARK   94  A    between atoms: _246  and  _248
REMARK   95  A    between atoms: _248  and  _249
REMARK   96  A    between atoms: _248  and  _251
REMARK   97  A    between atoms: _251  and  _252
REMARK   98  A    between atoms: _255  and  _257
REMARK   99  A    between atoms: _257  and  _258
REMARK  100  A    between atoms: _257  and  _260
REMARK  101  A    between atoms: _260  and  _261
REMARK  102  A    between atoms: _266  and  _267
REMARK  103  A    between atoms: _269  and  _271
REMARK  104  A    between atoms: _271  and  _272
REMARK  105  A    between atoms: _271  and  _274
REMARK  106  A    between atoms: _276  and  _278
REMARK  107  A    between atoms: _278  and  _279
REMARK  108  A    between atoms: _281  and  _283
REMARK  109  A    between atoms: _283  and  _284
REMARK  110  A    between atoms: _283  and  _286
REMARK  111  A    between atoms: _286  and  _287
REMARK  112  A    between atoms: _287  and  _288
REMARK  113  A    between atoms: _288  and  _289
REMARK  114  A    between atoms: _298  and  _300
REMARK  115  A    between atoms: _300  and  _301
REMARK  116  A    between atoms: _300  and  _303
REMARK  117  A    between atoms: _306  and  _308
REMARK  118  A    between atoms: _308  and  _309
REMARK  119  A    between atoms: _308  and  _311
REMARK  120  A    between atoms: _311  and  _312
REMARK  121  A    between atoms: _317  and  _319
REMARK  122  A    between atoms: _319  and  _320
REMARK  123  A    between atoms: _322  and  _324
REMARK  124  A    between atoms: _324  and  _325
REMARK  125  A    between atoms: _324  and  _327
REMARK  126  A    between atoms: _327  and  _328
REMARK  127  A    between atoms: _338  and  _340
REMARK  128  A    between atoms: _340  and  _341
REMARK  129  A    between atoms: _340  and  _343
REMARK  130  A    between atoms: _343  and  _344
REMARK  131  A    between atoms: _346  and  _348
REMARK  132  A    between atoms: _348  and  _349
REMARK  133  A    between atoms: _348  and  _351
REMARK  134  A    between atoms: _353  and  _355
REMARK  135  A    between atoms: _355  and  _356
REMARK  136  A    between atoms: _355  and  _358
REMARK  137  A    between atoms: _358  and  _359
REMARK  138  A    between atoms: _362  and  _364
REMARK  139  A    between atoms: _364  and  _365
REMARK  140  A    between atoms: _364  and  _367
REMARK  141  A    between atoms: _367  and  _368
REMARK  142  A    between atoms: _374  and  _376
REMARK  143  A    between atoms: _376  and  _377
REMARK  144  A    between atoms: _376  and  _379
REMARK  145  A    between atoms: _379  and  _380
REMARK  146  A    between atoms: _385  and  _386
REMARK                            x       y       z     vdW  Elec       q    Type
REMARK                         _______ _______ _______ _____ _____    ______ ____
ROOT
ATOM      1  CA  ILE A   1      16.824 -18.694 -17.887  0.00  0.00    +0.133 C 
ENDROOT
BRANCH   1   2
ATOM      2  N   ILE A   1      17.113 -20.126 -17.996  0.00  0.00    -0.239 NA
ATOM      3  H   ILE A   1      17.847 -20.550 -17.393  0.00  0.00    +0.142 HD
ENDBRANCH   1   2
BRANCH   1   4
ATOM      4  CB  ILE A   1      17.535 -18.063 -16.662  0.00  0.00    +0.023 C 
ATOM      5  CG2 ILE A   1      17.513 -16.550 -16.759  0.00  0.00    +0.002 C 
BRANCH   4   6
ATOM      6  CG1 ILE A   1      16.850 -18.529 -15.373  0.00  0.00    +0.002 C 
ATOM      7  CD1 ILE A   1      15.349 -18.264 -15.332  0.00  0.00    +0.000 C 
ENDBRANCH   4   6
ENDBRANCH   1   4
BRANCH   1   8
ATOM      8  C   ILE A   1      17.219 -17.942 -19.157  0.00  0.00    +0.224 C 
ATOM      9  O   ILE A   1      16.469 -17.093 -19.637  0.00  0.00    -0.287 OA
ENDBRANCH   1   8
TORSDOF 4
REMARK  Name = ../refined-set-2016/3ckb/3ckb_pocket.pdb
REMARK  146 active torsions:
REMARK  status: ('A' for Active; 'I' for Inactive)
REMARK    1  A    between atoms: _1  and  _3
REMARK    2  A    between atoms: _3  and  _4
REMARK    3  A    between atoms: _3  and  _6
REMARK    4  A    between atoms: _6  and  _7
REMARK    5  A    between atoms: _7  and  _8
REMARK    6  A    between atoms: _13  and  _15
REMARK    7  A    between atoms: _15  and  _16
REMARK    8  A    between atoms: _15  and  _18
REMARK    9  A    between atoms: _18  and  _19
REMARK   10  A    between atoms: _22  and  _24
REMARK   11  A    between atoms: _24  and  _25
REMARK   12  A    between atoms: _24  and  _27
REMARK   13  A    between atoms: _27  and  _28
REMARK   14  A    between atoms: _28  and  _29
REMARK   15  A    between atoms: _32  and  _34
REMARK   16  A    between atoms: _34  and  _35
REMARK   17  A    between atoms: _37  and  _39
REMARK   18  A    between atoms: _39  and  _40
REMARK   19  A    between atoms: _39  and  _42
REMARK   20  A    between atoms: _42  and  _43
REMARK   21  A    between atoms: _43  and  _44
REMARK   22  A    between atoms: _47  and  _49
REMARK   23  A    between atoms: _49  and  _50
REMARK   24  A    between atoms: _49  and  _52
REMARK   25  A    between atoms: _52  and  _53
REMARK   26  A    between atoms: _55  and  _57
REMARK   27  A    between atoms: _57  and  _58
REMARK   28  A    between atoms: _60  and  _62
REMARK   29  A    between atoms: _62  and  _63
REMARK   30  A    between atoms: _62  and  _65
REMARK   31  A    between atoms: _65  and  _66
REMARK   32  A    between atoms: _66  and  _67
REMARK   33  A    between atoms: _67  and  _68
REMARK   34  A    between atoms: _77  and  _79
REMARK   35  A    between atoms: _79  and  _80
REMARK   36  A    between atoms: _79  and  _82
REMARK   37  A    between atoms: _82  and  _83
REMARK   38  A    between atoms: _88  and  _90
REMARK   39  A    between atoms: _90  and  _91
REMARK   40  A    between atoms: _90  and  _93
REMARK   41  A    between atoms: _93  and  _94
REMARK   42  A    between atoms: _104  and  _106
REMARK   43  A    between atoms: _106  and  _107
REMARK   44  A    between atoms: _110  and  _112
REMARK   45  A    between atoms: _112  and  _113
REMARK   46  A    between atoms: _112  and  _115
REMARK   47  A    between atoms: _115  and  _116
REMARK   48  A    between atoms: _126  and  _128
REMARK   49  A    between atoms: _128  and  _129
REMARK   50  A    between atoms: _128  and  _131
REMARK   51  A    between atoms: _131  and  _132
REMARK   52  A    between atoms: _132  and  _133
REMARK   53  A    between atoms: _138  and  _140
REMARK   54  A    between atoms: _140  and  _141
REMARK   55  A    between atoms: _140  and  _143
REMARK   56  A    between atoms: _143  and  _144
REMARK   57  A    between atoms: _144  and  _145
REMARK   58  A    between atoms: _145  and  _146
REMARK   59  A    between atoms: _146  and  _147
REMARK   60  A    between atoms: _151  and  _153
REMARK   61  A    between atoms: _153  and  _154
REMARK   62  A    between atoms: _153  and  _156
REMARK   63  A    between atoms: _156  and  _157
REMARK   64  A    between atoms: _162  and  _164
REMARK   65  A    between atoms: _164  and  _165
REMARK   66  A    between atoms: _164  and  _167
REMARK   67  A    between atoms: _167  and  _168
REMARK   68  A    between atoms: _168  and  _169
REMARK   69  A    between atoms: _174  and  _176
REMARK   70  A    between atoms: _176  and  _177
REMARK   71  A    between atoms: _176  and  _179
REMARK   72  A    between atoms: _179  and  _180
REMARK   73  A    between atoms: _183  and  _185
REMARK   74  A    between atoms: _185  and  _186
REMARK   75  A    between atoms: _185  and  _188
REMARK   76  A    between atoms: _188  and  _189
REMARK   77  A    between atoms: _189  and  _190
REMARK   78  A    between atoms: _190  and  _191
REMARK   79  A    between atoms: _200  and  _202
REMARK   80  A    between atoms: _202  and  _203
REMARK   81  A    between atoms: _202  and  _205
REMARK   82  A    between atoms: _205  and  _206
REMARK   83  A    between atoms: _216  and  _218
REMARK   84  A    between atoms: _218  and  _219
REMARK   85  A    between atoms: _218  and  _221
REMARK   86  A    between atoms: _221  and  _222
REMARK   87  A    between atoms: _227  and  _229
REMARK   88  A    between atoms: _229  and  _230
REMARK   89  A    between atoms: _229  and  _232
REMARK   90  A    between atoms: _232  and  _233
REMARK   91  A    between atoms: _238  and  _239
REMARK   92  A    between atoms: _241  and  _243
REMARK   93  A    between atoms: _243  and  _244
REMARK   94  A    between atoms: _246  and  _248
REMARK   95  A    between atoms: _248  and  _249
REMARK   96  A    between atoms: _248  and  _251
REMARK   97  A    between atoms: _251  and  _252
REMARK   98  A    between atoms: _255  and  _257
REMARK   99  A    between atoms: _257  and  _258
REMARK  100  A    between atoms: _257  and  _260
REMARK  101  A    between atoms: _260  and  _261
REMARK  102  A    between atoms: _266  and  _267
REMARK  103  A    between atoms: _269  and  _271
REMARK  104  A    between atoms: _271  and  _272
REMARK  105  A    between atoms: _271  and  _274
REMARK  106  A    between atoms: _276  and  _278
REMARK  107  A    between atoms: _278  and  _279
REMARK  108  A    between atoms: _281  and  _283
REMARK  109  A    between atoms: _283  and  _284
REMARK  110  A    between atoms: _283  and  _286
REMARK  111  A    between atoms: _286  and  _287
REMARK  112  A    between atoms: _287  and  _288
REMARK  113  A    between atoms: _288  and  _289
REMARK  114  A    between atoms: _298  and  _300
REMARK  115  A    between atoms: _300  and  _301
REMARK  116  A    between atoms: _300  and  _303
REMARK  117  A    between atoms: _306  and  _308
REMARK  118  A    between atoms: _308  and  _309
REMARK  119  A    between atoms: _308  and  _311
REMARK  120  A    between atoms: _311  and  _312
REMARK  121  A    between atoms: _317  and  _319
REMARK  122  A    between atoms: _319  and  _320
REMARK  123  A    between atoms: _322  and  _324
REMARK  124  A    between atoms: _324  and  _325
REMARK  125  A    between atoms: _324  and  _327
REMARK  126  A    between atoms: _327  and  _328
REMARK  127  A    between atoms: _338  and  _340
REMARK  128  A    between atoms: _340  and  _341
REMARK  129  A    between atoms: _340  and  _343
REMARK  130  A    between atoms: _343  and  _344
REMARK  131  A    between atoms: _346  and  _348
REMARK  132  A    between atoms: _348  and  _349
REMARK  133  A    between atoms: _348  and  _351
REMARK  134  A    between atoms: _353  and  _355
REMARK  135  A    between atoms: _355  and  _356
REMARK  136  A    between atoms: _355  and  _358
REMARK  137  A    between atoms: _358  and  _359
REMARK  138  A    between atoms: _362  and  _364
REMARK  139  A    between atoms: _364  and  _365
REMARK  140  A    between atoms: _364  and  _367
REMARK  141  A    between atoms: _367  and  _368
REMARK  142  A    between atoms: _374  and  _376
REMARK  143  A    between atoms: _376  and  _377
REMARK  144  A    between atoms: _376  and  _379
REMARK  145  A    between atoms: _379  and  _380
REMARK  146  A    between atoms: _385  and  _386
REMARK                            x       y       z     vdW  Elec       q    Type
REMARK                         _______ _______ _______ _____ _____    ______ ____
ROOT
ATOM      1  NE  ARG A   1      13.352 -22.600 -14.679  0.00  0.00    -0.265 N 
ATOM      2  CZ  ARG A   1      13.567 -21.455 -14.043  0.00  0.00    +0.342 C 
ATOM      3  NH2 ARG A   1      14.699 -21.265 -13.380  0.00  0.00    -0.292 N 
ATOM      4 HH21 ARG A   1      14.866 -20.367 -12.882  0.00  0.00    +0.255 HD
ATOM      5 HH22 ARG A   1      15.420 -22.014 -13.358  0.00  0.00    +0.255 HD
ATOM      6  NH1 ARG A   1      12.654 -20.496 -14.084  0.00  0.00    -0.292 N 
ATOM      7 HH11 ARG A   1      12.820 -19.598 -13.586  0.00  0.00    +0.255 HD
ATOM      8 HH12 ARG A   1      11.771 -20.641 -14.614  0.00  0.00    +0.255 HD
ATOM      9  HE  ARG A   1      14.087 -23.334 -14.621  0.00  0.00    +0.259 HD
ENDROOT
BRANCH   1  10
ATOM     10  CD  ARG A   1      12.148 -22.896 -15.456  0.00  0.00    +0.174 C 
BRANCH  10  11
ATOM     11  CG  ARG A   1      12.161 -22.231 -16.831  0.00  0.00    +0.045 C 
BRANCH  11  12
ATOM     12  CB  ARG A   1      10.926 -22.618 -17.643  0.00  0.00    +0.029 C 
BRANCH  12  13
ATOM     13  CA  ARG A   1      10.524 -24.096 -17.517  0.00  0.00    +0.133 C 
BRANCH  13  14
ATOM     14  N   ARG A   1      11.598 -24.970 -17.981  0.00  0.00    -0.239 NA
ATOM     15  H   ARG A   1      12.381 -24.566 -18.534  0.00  0.00    +0.142 HD
ENDBRANCH  13  14
BRANCH  13  16
ATOM     16  C   ARG A   1       9.227 -24.344 -18.272  0.00  0.00    +0.224 C 
ATOM     17  O   ARG A   1       8.138 -24.203 -17.713  0.00  0.00    -0.287 OA
ENDBRANCH  13  16
ENDBRANCH  12  13
ENDBRANCH  11  12
ENDBRANCH  10  11
ENDBRANCH   1  10
TORSDOF 6
REMARK  Name = ../refined-set-2016/3ckb/3ckb_pocket.pdb
REMARK  146 active torsions:
REMARK  status: ('A' for Active; 'I' for Inactive)
REMARK    1  A    between atoms: _1  and  _3
REMARK    2  A    between atoms: _3  and  _4
REMARK    3  A    between atoms: _3  and  _6
REMARK    4  A    between atoms: _6  and  _7
REMARK    5  A    between atoms: _7  and  _8
REMARK    6  A    between atoms: _13  and  _15
REMARK    7  A    between atoms: _15  and  _16
REMARK    8  A    between atoms: _15  and  _18
REMARK    9  A    between atoms: _18  and  _19
REMARK   10  A    between atoms: _22  and  _24
REMARK   11  A    between atoms: _24  and  _25
REMARK   12  A    between atoms: _24  and  _27
REMARK   13  A    between atoms: _27  and  _28
REMARK   14  A    between atoms: _28  and  _29
REMARK   15  A    between atoms: _32  and  _34
REMARK   16  A    between atoms: _34  and  _35
REMARK   17  A    between atoms: _37  and  _39
REMARK   18  A    between atoms: _39  and  _40
REMARK   19  A    between atoms: _39  and  _42
REMARK   20  A    between atoms: _42  and  _43
REMARK   21  A    between atoms: _43  and  _44
REMARK   22  A    between atoms: _47  and  _49
REMARK   23  A    between atoms: _49  and  _50
REMARK   24  A    between atoms: _49  and  _52
REMARK   25  A    between atoms: _52  and  _53
REMARK   26  A    between atoms: _55  and  _57
REMARK   27  A    between atoms: _57  and  _58
REMARK   28  A    between atoms: _60  and  _62
REMARK   29  A    between atoms: _62  and  _63
REMARK   30  A    between atoms: _62  and  _65
REMARK   31  A    between atoms: _65  and  _66
REMARK   32  A    between atoms: _66  and  _67
REMARK   33  A    between atoms: _67  and  _68
REMARK   34  A    between atoms: _77  and  _79
REMARK   35  A    between atoms: _79  and  _80
REMARK   36  A    between atoms: _79  and  _82
REMARK   37  A    between atoms: _82  and  _83
REMARK   38  A    between atoms: _88  and  _90
REMARK   39  A    between atoms: _90  and  _91
REMARK   40  A    between atoms: _90  and  _93
REMARK   41  A    between atoms: _93  and  _94
REMARK   42  A    between atoms: _104  and  _106
REMARK   43  A    between atoms: _106  and  _107
REMARK   44  A    between atoms: _110  and  _112
REMARK   45  A    between atoms: _112  and  _113
REMARK   46  A    between atoms: _112  and  _115
REMARK   47  A    between atoms: _115  and  _116
REMARK   48  A    between atoms: _126  and  _128
REMARK   49  A    between atoms: _128  and  _129
REMARK   50  A    between atoms: _128  and  _131
REMARK   51  A    between atoms: _131  and  _132
REMARK   52  A    between atoms: _132  and  _133
REMARK   53  A    between atoms: _138  and  _140
REMARK   54  A    between atoms: _140  and  _141
REMARK   55  A    between atoms: _140  and  _143
REMARK   56  A    between atoms: _143  and  _144
REMARK   57  A    between atoms: _144  and  _145
REMARK   58  A    between atoms: _145  and  _146
REMARK   59  A    between atoms: _146  and  _147
REMARK   60  A    between atoms: _151  and  _153
REMARK   61  A    between atoms: _153  and  _154
REMARK   62  A    between atoms: _153  and  _156
REMARK   63  A    between atoms: _156  and  _157
REMARK   64  A    between atoms: _162  and  _164
REMARK   65  A    between atoms: _164  and  _165
REMARK   66  A    between atoms: _164  and  _167
REMARK   67  A    between atoms: _167  and  _168
REMARK   68  A    between atoms: _168  and  _169
REMARK   69  A    between atoms: _174  and  _176
REMARK   70  A    between atoms: _176  and  _177
REMARK   71  A    between atoms: _176  and  _179
REMARK   72  A    between atoms: _179  and  _180
REMARK   73  A    between atoms: _183  and  _185
REMARK   74  A    between atoms: _185  and  _186
REMARK   75  A    between atoms: _185  and  _188
REMARK   76  A    between atoms: _188  and  _189
REMARK   77  A    between atoms: _189  and  _190
REMARK   78  A    between atoms: _190  and  _191
REMARK   79  A    between atoms: _200  and  _202
REMARK   80  A    between atoms: _202  and  _203
REMARK   81  A    between atoms: _202  and  _205
REMARK   82  A    between atoms: _205  and  _206
REMARK   83  A    between atoms: _216  and  _218
REMARK   84  A    between atoms: _218  and  _219
REMARK   85  A    between atoms: _218  and  _221
REMARK   86  A    between atoms: _221  and  _222
REMARK   87  A    between atoms: _227  and  _229
REMARK   88  A    between atoms: _229  and  _230
REMARK   89  A    between atoms: _229  and  _232
REMARK   90  A    between atoms: _232  and  _233
REMARK   91  A    between atoms: _238  and  _239
REMARK   92  A    between atoms: _241  and  _243
REMARK   93  A    between atoms: _243  and  _244
REMARK   94  A    between atoms: _246  and  _248
REMARK   95  A    between atoms: _248  and  _249
REMARK   96  A    between atoms: _248  and  _251
REMARK   97  A    between atoms: _251  and  _252
REMARK   98  A    between atoms: _255  and  _257
REMARK   99  A    between atoms: _257  and  _258
REMARK  100  A    between atoms: _257  and  _260
REMARK  101  A    between atoms: _260  and  _261
REMARK  102  A    between atoms: _266  and  _267
REMARK  103  A    between atoms: _269  and  _271
REMARK  104  A    between atoms: _271  and  _272
REMARK  105  A    between atoms: _271  and  _274
REMARK  106  A    between atoms: _276  and  _278
REMARK  107  A    between atoms: _278  and  _279
REMARK  108  A    between atoms: _281  and  _283
REMARK  109  A    between atoms: _283  and  _284
REMARK  110  A    between atoms: _283  and  _286
REMARK  111  A    between atoms: _286  and  _287
REMARK  112  A    between atoms: _287  and  _288
REMARK  113  A    between atoms: _288  and  _289
REMARK  114  A    between atoms: _298  and  _300
REMARK  115  A    between atoms: _300  and  _301
REMARK  116  A    between atoms: _300  and  _303
REMARK  117  A    between atoms: _306  and  _308
REMARK  118  A    between atoms: _308  and  _309
REMARK  119  A    between atoms: _308  and  _311
REMARK  120  A    between atoms: _311  and  _312
REMARK  121  A    between atoms: _317  and  _319
REMARK  122  A    between atoms: _319  and  _320
REMARK  123  A    between atoms: _322  and  _324
REMARK  124  A    between atoms: _324  and  _325
REMARK  125  A    between atoms: _324  and  _327
REMARK  126  A    between atoms: _327  and  _328
REMARK  127  A    between atoms: _338  and  _340
REMARK  128  A    between atoms: _340  and  _341
REMARK  129  A    between atoms: _340  and  _343
REMARK  130  A    between atoms: _343  and  _344
REMARK  131  A    between atoms: _346  and  _348
REMARK  132  A    between atoms: _348  and  _349
REMARK  133  A    between atoms: _348  and  _351
REMARK  134  A    between atoms: _353  and  _355
REMARK  135  A    between atoms: _355  and  _356
REMARK  136  A    between atoms: _355  and  _358
REMARK  137  A    between atoms: _358  and  _359
REMARK  138  A    between atoms: _362  and  _364
REMARK  139  A    between atoms: _364  and  _365
REMARK  140  A    between atoms: _364  and  _367
REMARK  141  A    between atoms: _367  and  _368
REMARK  142  A    between atoms: _374  and  _376
REMARK  143  A    between atoms: _376  and  _377
REMARK  144  A    between atoms: _376  and  _379
REMARK  145  A    between atoms: _379  and  _380
REMARK  146  A    between atoms: _385  and  _386
REMARK                            x       y       z     vdW  Elec       q    Type
REMARK                         _______ _______ _______ _____ _____    ______ ____
ROOT
ATOM      1  CG  TRP A   1       9.583 -26.689 -14.161  0.00  0.00    -0.002 A 
ATOM      2  CD2 TRP A   1      10.616 -25.995 -13.455  0.00  0.00    +0.013 A 
ATOM      3  CE3 TRP A   1      10.760 -24.681 -12.989  0.00  0.00    +0.001 A 
ATOM      4  CZ3 TRP A   1      11.931 -24.332 -12.323  0.00  0.00    +0.000 A 
ATOM      5  CH2 TRP A   1      12.957 -25.272 -12.115  0.00  0.00    +0.001 A 
ATOM      6  CZ2 TRP A   1      12.843 -26.567 -12.559  0.00  0.00    +0.017 A 
ATOM      7  CE2 TRP A   1      11.663 -26.919 -13.230  0.00  0.00    +0.056 A 
ATOM      8  NE1 TRP A   1      11.279 -28.117 -13.774  0.00  0.00    -0.352 N 
ATOM      9  HE1 TRP A   1      11.841 -28.992 -13.768  0.00  0.00    +0.166 HD
ATOM     10  CD1 TRP A   1      10.030 -27.973 -14.329  0.00  0.00    +0.068 A 
ENDROOT
BRANCH   1  11
ATOM     11  CB  TRP A   1       8.282 -26.113 -14.637  0.00  0.00    +0.053 C 
BRANCH  11  12
ATOM     12  CA  TRP A   1       7.365 -27.129 -15.320  0.00  0.00    +0.137 C 
BRANCH  12  13
ATOM     13  N   TRP A   1       7.845 -27.424 -16.663  0.00  0.00    -0.239 NA
ATOM     14  H   TRP A   1       8.724 -26.981 -16.998  0.00  0.00    +0.142 HD
ENDBRANCH  12  13
BRANCH  12  15
ATOM     15  C   TRP A   1       5.936 -26.605 -15.303  0.00  0.00    +0.224 C 
ATOM     16  O   TRP A   1       5.112 -27.075 -14.526  0.00  0.00    -0.287 OA
ENDBRANCH  12  15
ENDBRANCH  11  12
ENDBRANCH   1  11
TORSDOF 4
REMARK  Name = ../refined-set-2016/3ckb/3ckb_pocket.pdb
REMARK  146 active torsions:
REMARK  status: ('A' for Active; 'I' for Inactive)
REMARK    1  A    between atoms: _1  and  _3
REMARK    2  A    between atoms: _3  and  _4
REMARK    3  A    between atoms: _3  and  _6
REMARK    4  A    between atoms: _6  and  _7
REMARK    5  A    between atoms: _7  and  _8
REMARK    6  A    between atoms: _13  and  _15
REMARK    7  A    between atoms: _15  and  _16
REMARK    8  A    between atoms: _15  and  _18
REMARK    9  A    between atoms: _18  and  _19
REMARK   10  A    between atoms: _22  and  _24
REMARK   11  A    between atoms: _24  and  _25
REMARK   12  A    between atoms: _24  and  _27
REMARK   13  A    between atoms: _27  and  _28
REMARK   14  A    between atoms: _28  and  _29
REMARK   15  A    between atoms: _32  and  _34
REMARK   16  A    between atoms: _34  and  _35
REMARK   17  A    between atoms: _37  and  _39
REMARK   18  A    between atoms: _39  and  _40
REMARK   19  A    between atoms: _39  and  _42
REMARK   20  A    between atoms: _42  and  _43
REMARK   21  A    between atoms: _43  and  _44
REMARK   22  A    between atoms: _47  and  _49
REMARK   23  A    between atoms: _49  and  _50
REMARK   24  A    between atoms: _49  and  _52
REMARK   25  A    between atoms: _52  and  _53
REMARK   26  A    between atoms: _55  and  _57
REMARK   27  A    between atoms: _57  and  _58
REMARK   28  A    between atoms: _60  and  _62
REMARK   29  A    between atoms: _62  and  _63
REMARK   30  A    between atoms: _62  and  _65
REMARK   31  A    between atoms: _65  and  _66
REMARK   32  A    between atoms: _66  and  _67
REMARK   33  A    between atoms: _67  and  _68
REMARK   34  A    between atoms: _77  and  _79
REMARK   35  A    between atoms: _79  and  _80
REMARK   36  A    between atoms: _79  and  _82
REMARK   37  A    between atoms: _82  and  _83
REMARK   38  A    between atoms: _88  and  _90
REMARK   39  A    between atoms: _90  and  _91
REMARK   40  A    between atoms: _90  and  _93
REMARK   41  A    between atoms: _93  and  _94
REMARK   42  A    between atoms: _104  and  _106
REMARK   43  A    between atoms: _106  and  _107
REMARK   44  A    between atoms: _110  and  _112
REMARK   45  A    between atoms: _112  and  _113
REMARK   46  A    between atoms: _112  and  _115
REMARK   47  A    between atoms: _115  and  _116
REMARK   48  A    between atoms: _126  and  _128
REMARK   49  A    between atoms: _128  and  _129
REMARK   50  A    between atoms: _128  and  _131
REMARK   51  A    between atoms: _131  and  _132
REMARK   52  A    between atoms: _132  and  _133
REMARK   53  A    between atoms: _138  and  _140
REMARK   54  A    between atoms: _140  and  _141
REMARK   55  A    between atoms: _140  and  _143
REMARK   56  A    between atoms: _143  and  _144
REMARK   57  A    between atoms: _144  and  _145
REMARK   58  A    between atoms: _145  and  _146
REMARK   59  A    between atoms: _146  and  _147
REMARK   60  A    between atoms: _151  and  _153
REMARK   61  A    between atoms: _153  and  _154
REMARK   62  A    between atoms: _153  and  _156
REMARK   63  A    between atoms: _156  and  _157
REMARK   64  A    between atoms: _162  and  _164
REMARK   65  A    between atoms: _164  and  _165
REMARK   66  A    between atoms: _164  and  _167
REMARK   67  A    between atoms: _167  and  _168
REMARK   68  A    between atoms: _168  and  _169
REMARK   69  A    between atoms: _174  and  _176
REMARK   70  A    between atoms: _176  and  _177
REMARK   71  A    between atoms: _176  and  _179
REMARK   72  A    between atoms: _179  and  _180
REMARK   73  A    between atoms: _183  and  _185
REMARK   74  A    between atoms: _185  and  _186
REMARK   75  A    between atoms: _185  and  _188
REMARK   76  A    between atoms: _188  and  _189
REMARK   77  A    between atoms: _189  and  _190
REMARK   78  A    between atoms: _190  and  _191
REMARK   79  A    between atoms: _200  and  _202
REMARK   80  A    between atoms: _202  and  _203
REMARK   81  A    between atoms: _202  and  _205
REMARK   82  A    between atoms: _205  and  _206
REMARK   83  A    between atoms: _216  and  _218
REMARK   84  A    between atoms: _218  and  _219
REMARK   85  A    between atoms: _218  and  _221
REMARK   86  A    between atoms: _221  and  _222
REMARK   87  A    between atoms: _227  and  _229
REMARK   88  A    between atoms: _229  and  _230
REMARK   89  A    between atoms: _229  and  _232
REMARK   90  A    between atoms: _232  and  _233
REMARK   91  A    between atoms: _238  and  _239
REMARK   92  A    between atoms: _241  and  _243
REMARK   93  A    between atoms: _243  and  _244
REMARK   94  A    between atoms: _246  and  _248
REMARK   95  A    between atoms: _248  and  _249
REMARK   96  A    between atoms: _248  and  _251
REMARK   97  A    between atoms: _251  and  _252
REMARK   98  A    between atoms: _255  and  _257
REMARK   99  A    between atoms: _257  and  _258
REMARK  100  A    between atoms: _257  and  _260
REMARK  101  A    between atoms: _260  and  _261
REMARK  102  A    between atoms: _266  and  _267
REMARK  103  A    between atoms: _269  and  _271
REMARK  104  A    between atoms: _271  and  _272
REMARK  105  A    between atoms: _271  and  _274
REMARK  106  A    between atoms: _276  and  _278
REMARK  107  A    between atoms: _278  and  _279
REMARK  108  A    between atoms: _281  and  _283
REMARK  109  A    between atoms: _283  and  _284
REMARK  110  A    between atoms: _283  and  _286
REMARK  111  A    between atoms: _286  and  _287
REMARK  112  A    between atoms: _287  and  _288
REMARK  113  A    between atoms: _288  and  _289
REMARK  114  A    between atoms: _298  and  _300
REMARK  115  A    between atoms: _300  and  _301
REMARK  116  A    between atoms: _300  and  _303
REMARK  117  A    between atoms: _306  and  _308
REMARK  118  A    between atoms: _308  and  _309
REMARK  119  A    between atoms: _308  and  _311
REMARK  120  A    between atoms: _311  and  _312
REMARK  121  A    between atoms: _317  and  _319
REMARK  122  A    between atoms: _319  and  _320
REMARK  123  A    between atoms: _322  and  _324
REMARK  124  A    between atoms: _324  and  _325
REMARK  125  A    between atoms: _324  and  _327
REMARK  126  A    between atoms: _327  and  _328
REMARK  127  A    between atoms: _338  and  _340
REMARK  128  A    between atoms: _340  and  _341
REMARK  129  A    between atoms: _340  and  _343
REMARK  130  A    between atoms: _343  and  _344
REMARK  131  A    between atoms: _346  and  _348
REMARK  132  A    between atoms: _348  and  _349
REMARK  133  A    between atoms: _348  and  _351
REMARK  134  A    between atoms: _353  and  _355
REMARK  135  A    between atoms: _355  and  _356
REMARK  136  A    between atoms: _355  and  _358
REMARK  137  A    between atoms: _358  and  _359
REMARK  138  A    between atoms: _362  and  _364
REMARK  139  A    between atoms: _364  and  _365
REMARK  140  A    between atoms: _364  and  _367
REMARK  141  A    between atoms: _367  and  _368
REMARK  142  A    between atoms: _374  and  _376
REMARK  143  A    between atoms: _376  and  _377
REMARK  144  A    between atoms: _376  and  _379
REMARK  145  A    between atoms: _379  and  _380
REMARK  146  A    between atoms: _385  and  _386
REMARK                            x       y       z     vdW  Elec       q    Type
REMARK                         _______ _______ _______ _____ _____    ______ ____
ROOT
ATOM      1  CA  TYR A   2       5.963 -21.686  -1.041  0.00  0.00    +0.153 C 
ENDROOT
BRANCH   1   3
ATOM      2  C   ASN A   1       7.571 -20.304   0.119  0.00  0.00    +0.239 C 
ATOM      3  N   TYR A   2       6.418 -20.961   0.140  0.00  0.00    -0.297 N 
ATOM      4  H   TYR A   2       5.836 -20.959   1.002  0.00  0.00    +0.150 HD
ATOM      5  O   ASN A   1       8.266 -20.227  -0.892  0.00  0.00    -0.274 OA
BRANCH   2   6
ATOM      6  CA  ASN A   1       8.004 -19.614   1.409  0.00  0.00    +0.154 C 
BRANCH   6   7
ATOM      7  N   ASN A   1       7.081 -19.735   2.527  0.00  0.00    -0.238 NA
ATOM      8  H   ASN A   1       7.257 -20.461   3.251  0.00  0.00    +0.142 HD
ENDBRANCH   6   7
BRANCH   6   9
ATOM      9  CB  ASN A   1       9.364 -20.154   1.850  0.00  0.00    +0.111 C 
BRANCH   9  10
ATOM     10  CG  ASN A   1      10.514 -19.493   1.131  0.00  0.00    +0.221 C 
ATOM     11  OD1 ASN A   1      10.582 -18.267   1.043  0.00  0.00    -0.275 OA
ATOM     12  ND2 ASN A   1      11.437 -20.299   0.626  0.00  0.00    -0.329 N 
ATOM     13 HD21 ASN A   1      11.338 -21.330   0.725  0.00  0.00    +0.145 HD
ATOM     14 HD22 ASN A   1      12.261 -19.901   0.131  0.00  0.00    +0.145 HD
ENDBRANCH   9  10
ENDBRANCH   6   9
ENDBRANCH   2   6
ENDBRANCH   1   3
BRANCH   1  15
ATOM     15  C   TYR A   2       4.843 -21.041  -1.835  0.00  0.00    +0.241 C 
ATOM     16  N   GLY A   3       4.651 -19.740  -1.661  0.00  0.00    -0.296 N 
ATOM     17  H   GLY A   3       5.265 -19.203  -1.016  0.00  0.00    +0.150 HD
ATOM     18  O   TYR A   2       4.171 -21.716  -2.611  0.00  0.00    -0.273 OA
BRANCH  16  19
ATOM     19  CA  GLY A   3       3.580 -19.069  -2.375  0.00  0.00    +0.163 C 
BRANCH  19  20
ATOM     20  C   GLY A   3       4.009 -18.225  -3.552  0.00  0.00    +0.229 C 
ATOM     21  O   GLY A   3       5.188 -18.157  -3.902  0.00  0.00    -0.286 OA
ENDBRANCH  19  20
ENDBRANCH  16  19
ENDBRANCH   1  15
BRANCH   1  22
ATOM     22  CB  TYR A   2       5.539 -23.101  -0.642  0.00  0.00    +0.055 C 
BRANCH  22  23
ATOM     23  CG  TYR A   2       6.637 -23.891   0.028  0.00  0.00    -0.020 A 
ATOM     24  CD2 TYR A   2       6.959 -23.679   1.367  0.00  0.00    -0.001 A 
ATOM     25  CE2 TYR A   2       7.986 -24.396   1.981  0.00  0.00    +0.036 A 
ATOM     26  CZ  TYR A   2       8.698 -25.338   1.251  0.00  0.00    +0.134 A 
ATOM     27  CE1 TYR A   2       8.394 -25.566  -0.080  0.00  0.00    +0.036 A 
ATOM     28  CD1 TYR A   2       7.368 -24.843  -0.685  0.00  0.00    -0.001 A 
BRANCH  26  29
ATOM     29  OH  TYR A   2       9.711 -26.056   1.848  0.00  0.00    -0.506 OA
ATOM     30  HH  TYR A   2       9.800 -25.775   2.793  0.00  0.00    +0.292 HD
ENDBRANCH  26  29
ENDBRANCH  22  23
ENDBRANCH   1  22
TORSDOF 11
REMARK  Name = ../refined-set-2016/3ckb/3ckb_pocket.pdb
REMARK  146 active torsions:
REMARK  status: ('A' for Active; 'I' for Inactive)
REMARK    1  A    between atoms: _1  and  _3
REMARK    2  A    between atoms: _3  and  _4
REMARK    3  A    between atoms: _3  and  _6
REMARK    4  A    between atoms: _6  and  _7
REMARK    5  A    between atoms: _7  and  _8
REMARK    6  A    between atoms: _13  and  _15
REMARK    7  A    between atoms: _15  and  _16
REMARK    8  A    between atoms: _15  and  _18
REMARK    9  A    between atoms: _18  and  _19
REMARK   10  A    between atoms: _22  and  _24
REMARK   11  A    between atoms: _24  and  _25
REMARK   12  A    between atoms: _24  and  _27
REMARK   13  A    between atoms: _27  and  _28
REMARK   14  A    between atoms: _28  and  _29
REMARK   15  A    between atoms: _32  and  _34
REMARK   16  A    between atoms: _34  and  _35
REMARK   17  A    between atoms: _37  and  _39
REMARK   18  A    between atoms: _39  and  _40
REMARK   19  A    between atoms: _39  and  _42
REMARK   20  A    between atoms: _42  and  _43
REMARK   21  A    between atoms: _43  and  _44
REMARK   22  A    between atoms: _47  and  _49
REMARK   23  A    between atoms: _49  and  _50
REMARK   24  A    between atoms: _49  and  _52
REMARK   25  A    between atoms: _52  and  _53
REMARK   26  A    between atoms: _55  and  _57
REMARK   27  A    between atoms: _57  and  _58
REMARK   28  A    between atoms: _60  and  _62
REMARK   29  A    between atoms: _62  and  _63
REMARK   30  A    between atoms: _62  and  _65
REMARK   31  A    between atoms: _65  and  _66
REMARK   32  A    between atoms: _66  and  _67
REMARK   33  A    between atoms: _67  and  _68
REMARK   34  A    between atoms: _77  and  _79
REMARK   35  A    between atoms: _79  and  _80
REMARK   36  A    between atoms: _79  and  _82
REMARK   37  A    between atoms: _82  and  _83
REMARK   38  A    between atoms: _88  and  _90
REMARK   39  A    between atoms: _90  and  _91
REMARK   40  A    between atoms: _90  and  _93
REMARK   41  A    between atoms: _93  and  _94
REMARK   42  A    between atoms: _104  and  _106
REMARK   43  A    between atoms: _106  and  _107
REMARK   44  A    between atoms: _110  and  _112
REMARK   45  A    between atoms: _112  and  _113
REMARK   46  A    between atoms: _112  and  _115
REMARK   47  A    between atoms: _115  and  _116
REMARK   48  A    between atoms: _126  and  _128
REMARK   49  A    between atoms: _128  and  _129
REMARK   50  A    between atoms: _128  and  _131
REMARK   51  A    between atoms: _131  and  _132
REMARK   52  A    between atoms: _132  and  _133
REMARK   53  A    between atoms: _138  and  _140
REMARK   54  A    between atoms: _140  and  _141
REMARK   55  A    between atoms: _140  and  _143
REMARK   56  A    between atoms: _143  and  _144
REMARK   57  A    between atoms: _144  and  _145
REMARK   58  A    between atoms: _145  and  _146
REMARK   59  A    between atoms: _146  and  _147
REMARK   60  A    between atoms: _151  and  _153
REMARK   61  A    between atoms: _153  and  _154
REMARK   62  A    between atoms: _153  and  _156
REMARK   63  A    between atoms: _156  and  _157
REMARK   64  A    between atoms: _162  and  _164
REMARK   65  A    between atoms: _164  and  _165
REMARK   66  A    between atoms: _164  and  _167
REMARK   67  A    between atoms: _167  and  _168
REMARK   68  A    between atoms: _168  and  _169
REMARK   69  A    between atoms: _174  and  _176
REMARK   70  A    between atoms: _176  and  _177
REMARK   71  A    between atoms: _176  and  _179
REMARK   72  A    between atoms: _179  and  _180
REMARK   73  A    between atoms: _183  and  _185
REMARK   74  A    between atoms: _185  and  _186
REMARK   75  A    between atoms: _185  and  _188
REMARK   76  A    between atoms: _188  and  _189
REMARK   77  A    between atoms: _189  and  _190
REMARK   78  A    between atoms: _190  and  _191
REMARK   79  A    between atoms: _200  and  _202
REMARK   80  A    between atoms: _202  and  _203
REMARK   81  A    between atoms: _202  and  _205
REMARK   82  A    between atoms: _205  and  _206
REMARK   83  A    between atoms: _216  and  _218
REMARK   84  A    between atoms: _218  and  _219
REMARK   85  A    between atoms: _218  and  _221
REMARK   86  A    between atoms: _221  and  _222
REMARK   87  A    between atoms: _227  and  _229
REMARK   88  A    between atoms: _229  and  _230
REMARK   89  A    between atoms: _229  and  _232
REMARK   90  A    between atoms: _232  and  _233
REMARK   91  A    between atoms: _238  and  _239
REMARK   92  A    between atoms: _241  and  _243
REMARK   93  A    between atoms: _243  and  _244
REMARK   94  A    between atoms: _246  and  _248
REMARK   95  A    between atoms: _248  and  _249
REMARK   96  A    between atoms: _248  and  _251
REMARK   97  A    between atoms: _251  and  _252
REMARK   98  A    between atoms: _255  and  _257
REMARK   99  A    between atoms: _257  and  _258
REMARK  100  A    between atoms: _257  and  _260
REMARK  101  A    between atoms: _260  and  _261
REMARK  102  A    between atoms: _266  and  _267
REMARK  103  A    between atoms: _269  and  _271
REMARK  104  A    between atoms: _271  and  _272
REMARK  105  A    between atoms: _271  and  _274
REMARK  106  A    between atoms: _276  and  _278
REMARK  107  A    between atoms: _278  and  _279
REMARK  108  A    between atoms: _281  and  _283
REMARK  109  A    between atoms: _283  and  _284
REMARK  110  A    between atoms: _283  and  _286
REMARK  111  A    between atoms: _286  and  _287
REMARK  112  A    between atoms: _287  and  _288
REMARK  113  A    between atoms: _288  and  _289
REMARK  114  A    between atoms: _298  and  _300
REMARK  115  A    between atoms: _300  and  _301
REMARK  116  A    between atoms: _300  and  _303
REMARK  117  A    between atoms: _306  and  _308
REMARK  118  A    between atoms: _308  and  _309
REMARK  119  A    between atoms: _308  and  _311
REMARK  120  A    between atoms: _311  and  _312
REMARK  121  A    between atoms: _317  and  _319
REMARK  122  A    between atoms: _319  and  _320
REMARK  123  A    between atoms: _322  and  _324
REMARK  124  A    between atoms: _324  and  _325
REMARK  125  A    between atoms: _324  and  _327
REMARK  126  A    between atoms: _327  and  _328
REMARK  127  A    between atoms: _338  and  _340
REMARK  128  A    between atoms: _340  and  _341
REMARK  129  A    between atoms: _340  and  _343
REMARK  130  A    between atoms: _343  and  _344
REMARK  131  A    between atoms: _346  and  _348
REMARK  132  A    between atoms: _348  and  _349
REMARK  133  A    between atoms: _348  and  _351
REMARK  134  A    between atoms: _353  and  _355
REMARK  135  A    between atoms: _355  and  _356
REMARK  136  A    between atoms: _355  and  _358
REMARK  137  A    between atoms: _358  and  _359
REMARK  138  A    between atoms: _362  and  _364
REMARK  139  A    between atoms: _364  and  _365
REMARK  140  A    between atoms: _364  and  _367
REMARK  141  A    between atoms: _367  and  _368
REMARK  142  A    between atoms: _374  and  _376
REMARK  143  A    between atoms: _376  and  _377
REMARK  144  A    between atoms: _376  and  _379
REMARK  145  A    between atoms: _379  and  _380
REMARK  146  A    between atoms: _385  and  _386
REMARK                            x       y       z     vdW  Elec       q    Type
REMARK                         _______ _______ _______ _____ _____    ______ ____
ROOT
ATOM      1  CA  TYR A   2       8.252 -14.788  -5.354  0.00  0.00    +0.141 C 
ENDROOT
BRANCH   1   4
ATOM      2  C   THR A   1       7.702 -14.320  -2.999  0.00  0.00    +0.241 C 
ATOM      3  O   THR A   1       8.649 -13.541  -2.828  0.00  0.00    -0.274 OA
ATOM      4  N   TYR A   2       7.452 -14.949  -4.146  0.00  0.00    -0.298 N 
ATOM      5  H   TYR A   2       6.637 -15.594  -4.182  0.00  0.00    +0.150 HD
BRANCH   2   6
ATOM      6  CA  THR A   1       6.722 -14.643  -1.875  0.00  0.00    +0.172 C 
BRANCH   6   7
ATOM      7  N   THR A   1       5.378 -14.523  -2.444  0.00  0.00    -0.236 NA
ATOM      8  H   THR A   1       4.757 -15.357  -2.465  0.00  0.00    +0.142 HD
ENDBRANCH   6   7
BRANCH   6   9
ATOM      9  CB  THR A   1       7.022 -16.083  -1.412  0.00  0.00    +0.135 C 
ATOM     10  CG2 THR A   1       8.470 -16.213  -0.996  0.00  0.00    +0.034 C 
BRANCH   9  11
ATOM     11  OG1 THR A   1       6.181 -16.423  -0.307  0.00  0.00    -0.383 OA
ATOM     12  HG1 THR A   1       6.379 -17.348  -0.015  0.00  0.00    +0.210 HD
ENDBRANCH   9  11
ENDBRANCH   6   9
ENDBRANCH   2   6
ENDBRANCH   1   4
BRANCH   1  13
ATOM     13  C   TYR A   2       8.227 -13.322  -5.814  0.00  0.00    +0.227 C 
ATOM     14  O   TYR A   2       9.250 -12.762  -6.194  0.00  0.00    -0.286 OA
ENDBRANCH   1  13
BRANCH   1  15
ATOM     15  CB  TYR A   2       7.667 -15.697  -6.440  0.00  0.00    +0.054 C 
BRANCH  15  16
ATOM     16  CG  TYR A   2       8.475 -15.823  -7.708  0.00  0.00    -0.020 A 
ATOM     17  CD2 TYR A   2       9.650 -16.575  -7.738  0.00  0.00    -0.001 A 
ATOM     18  CE2 TYR A   2      10.378 -16.726  -8.914  0.00  0.00    +0.036 A 
ATOM     19  CZ  TYR A   2       9.932 -16.114 -10.080  0.00  0.00    +0.134 A 
ATOM     20  CE1 TYR A   2       8.769 -15.357 -10.075  0.00  0.00    +0.036 A 
ATOM     21  CD1 TYR A   2       8.047 -15.217  -8.892  0.00  0.00    -0.001 A 
BRANCH  19  22
ATOM     22  OH  TYR A   2      10.648 -16.266 -11.243  0.00  0.00    -0.506 OA
ATOM     23  HH  TYR A   2      10.077 -16.699 -11.926  0.00  0.00    +0.292 HD
ENDBRANCH  19  22
ENDBRANCH  15  16
ENDBRANCH   1  15
TORSDOF 9
REMARK  Name = ../refined-set-2016/3ckb/3ckb_pocket.pdb
REMARK  146 active torsions:
REMARK  status: ('A' for Active; 'I' for Inactive)
REMARK    1  A    between atoms: _1  and  _3
REMARK    2  A    between atoms: _3  and  _4
REMARK    3  A    between atoms: _3  and  _6
REMARK    4  A    between atoms: _6  and  _7
REMARK    5  A    between atoms: _7  and  _8
REMARK    6  A    between atoms: _13  and  _15
REMARK    7  A    between atoms: _15  and  _16
REMARK    8  A    between atoms: _15  and  _18
REMARK    9  A    between atoms: _18  and  _19
REMARK   10  A    between atoms: _22  and  _24
REMARK   11  A    between atoms: _24  and  _25
REMARK   12  A    between atoms: _24  and  _27
REMARK   13  A    between atoms: _27  and  _28
REMARK   14  A    between atoms: _28  and  _29
REMARK   15  A    between atoms: _32  and  _34
REMARK   16  A    between atoms: _34  and  _35
REMARK   17  A    between atoms: _37  and  _39
REMARK   18  A    between atoms: _39  and  _40
REMARK   19  A    between atoms: _39  and  _42
REMARK   20  A    between atoms: _42  and  _43
REMARK   21  A    between atoms: _43  and  _44
REMARK   22  A    between atoms: _47  and  _49
REMARK   23  A    between atoms: _49  and  _50
REMARK   24  A    between atoms: _49  and  _52
REMARK   25  A    between atoms: _52  and  _53
REMARK   26  A    between atoms: _55  and  _57
REMARK   27  A    between atoms: _57  and  _58
REMARK   28  A    between atoms: _60  and  _62
REMARK   29  A    between atoms: _62  and  _63
REMARK   30  A    between atoms: _62  and  _65
REMARK   31  A    between atoms: _65  and  _66
REMARK   32  A    between atoms: _66  and  _67
REMARK   33  A    between atoms: _67  and  _68
REMARK   34  A    between atoms: _77  and  _79
REMARK   35  A    between atoms: _79  and  _80
REMARK   36  A    between atoms: _79  and  _82
REMARK   37  A    between atoms: _82  and  _83
REMARK   38  A    between atoms: _88  and  _90
REMARK   39  A    between atoms: _90  and  _91
REMARK   40  A    between atoms: _90  and  _93
REMARK   41  A    between atoms: _93  and  _94
REMARK   42  A    between atoms: _104  and  _106
REMARK   43  A    between atoms: _106  and  _107
REMARK   44  A    between atoms: _110  and  _112
REMARK   45  A    between atoms: _112  and  _113
REMARK   46  A    between atoms: _112  and  _115
REMARK   47  A    between atoms: _115  and  _116
REMARK   48  A    between atoms: _126  and  _128
REMARK   49  A    between atoms: _128  and  _129
REMARK   50  A    between atoms: _128  and  _131
REMARK   51  A    between atoms: _131  and  _132
REMARK   52  A    between atoms: _132  and  _133
REMARK   53  A    between atoms: _138  and  _140
REMARK   54  A    between atoms: _140  and  _141
REMARK   55  A    between atoms: _140  and  _143
REMARK   56  A    between atoms: _143  and  _144
REMARK   57  A    between atoms: _144  and  _145
REMARK   58  A    between atoms: _145  and  _146
REMARK   59  A    between atoms: _146  and  _147
REMARK   60  A    between atoms: _151  and  _153
REMARK   61  A    between atoms: _153  and  _154
REMARK   62  A    between atoms: _153  and  _156
REMARK   63  A    between atoms: _156  and  _157
REMARK   64  A    between atoms: _162  and  _164
REMARK   65  A    between atoms: _164  and  _165
REMARK   66  A    between atoms: _164  and  _167
REMARK   67  A    between atoms: _167  and  _168
REMARK   68  A    between atoms: _168  and  _169
REMARK   69  A    between atoms: _174  and  _176
REMARK   70  A    between atoms: _176  and  _177
REMARK   71  A    between atoms: _176  and  _179
REMARK   72  A    between atoms: _179  and  _180
REMARK   73  A    between atoms: _183  and  _185
REMARK   74  A    between atoms: _185  and  _186
REMARK   75  A    between atoms: _185  and  _188
REMARK   76  A    between atoms: _188  and  _189
REMARK   77  A    between atoms: _189  and  _190
REMARK   78  A    between atoms: _190  and  _191
REMARK   79  A    between atoms: _200  and  _202
REMARK   80  A    between atoms: _202  and  _203
REMARK   81  A    between atoms: _202  and  _205
REMARK   82  A    between atoms: _205  and  _206
REMARK   83  A    between atoms: _216  and  _218
REMARK   84  A    between atoms: _218  and  _219
REMARK   85  A    between atoms: _218  and  _221
REMARK   86  A    between atoms: _221  and  _222
REMARK   87  A    between atoms: _227  and  _229
REMARK   88  A    between atoms: _229  and  _230
REMARK   89  A    between atoms: _229  and  _232
REMARK   90  A    between atoms: _232  and  _233
REMARK   91  A    between atoms: _238  and  _239
REMARK   92  A    between atoms: _241  and  _243
REMARK   93  A    between atoms: _243  and  _244
REMARK   94  A    between atoms: _246  and  _248
REMARK   95  A    between atoms: _248  and  _249
REMARK   96  A    between atoms: _248  and  _251
REMARK   97  A    between atoms: _251  and  _252
REMARK   98  A    between atoms: _255  and  _257
REMARK   99  A    between atoms: _257  and  _258
REMARK  100  A    between atoms: _257  and  _260
REMARK  101  A    between atoms: _260  and  _261
REMARK  102  A    between atoms: _266  and  _267
REMARK  103  A    between atoms: _269  and  _271
REMARK  104  A    between atoms: _271  and  _272
REMARK  105  A    between atoms: _271  and  _274
REMARK  106  A    between atoms: _276  and  _278
REMARK  107  A    between atoms: _278  and  _279
REMARK  108  A    between atoms: _281  and  _283
REMARK  109  A    between atoms: _283  and  _284
REMARK  110  A    between atoms: _283  and  _286
REMARK  111  A    between atoms: _286  and  _287
REMARK  112  A    between atoms: _287  and  _288
REMARK  113  A    between atoms: _288  and  _289
REMARK  114  A    between atoms: _298  and  _300
REMARK  115  A    between atoms: _300  and  _301
REMARK  116  A    between atoms: _300  and  _303
REMARK  117  A    between atoms: _306  and  _308
REMARK  118  A    between atoms: _308  and  _309
REMARK  119  A    between atoms: _308  and  _311
REMARK  120  A    between atoms: _311  and  _312
REMARK  121  A    between atoms: _317  and  _319
REMARK  122  A    between atoms: _319  and  _320
REMARK  123  A    between atoms: _322  and  _324
REMARK  124  A    between atoms: _324  and  _325
REMARK  125  A    between atoms: _324  and  _327
REMARK  126  A    between atoms: _327  and  _328
REMARK  127  A    between atoms: _338  and  _340
REMARK  128  A    between atoms: _340  and  _341
REMARK  129  A    between atoms: _340  and  _343
REMARK  130  A    between atoms: _343  and  _344
REMARK  131  A    between atoms: _346  and  _348
REMARK  132  A    between atoms: _348  and  _349
REMARK  133  A    between atoms: _348  and  _351
REMARK  134  A    between atoms: _353  and  _355
REMARK  135  A    between atoms: _355  and  _356
REMARK  136  A    between atoms: _355  and  _358
REMARK  137  A    between atoms: _358  and  _359
REMARK  138  A    between atoms: _362  and  _364
REMARK  139  A    between atoms: _364  and  _365
REMARK  140  A    between atoms: _364  and  _367
REMARK  141  A    between atoms: _367  and  _368
REMARK  142  A    between atoms: _374  and  _376
REMARK  143  A    between atoms: _376  and  _377
REMARK  144  A    between atoms: _376  and  _379
REMARK  145  A    between atoms: _379  and  _380
REMARK  146  A    between atoms: _385  and  _386
REMARK                            x       y       z     vdW  Elec       q    Type
REMARK                         _______ _______ _______ _____ _____    ______ ____
ROOT
ATOM      1  C   CYS A   1      12.116 -11.294  -3.346  0.00  0.00    +0.239 C 
ATOM      2  O   CYS A   1      13.292 -10.921  -3.319  0.00  0.00    -0.274 OA
ATOM      3  N   GLY A   2      11.511 -11.720  -4.450  0.00  0.00    -0.297 N 
ATOM      4  H   GLY A   2      10.510 -12.000  -4.409  0.00  0.00    +0.150 HD
ENDROOT
BRANCH   1   5
ATOM      5  CA  CYS A   1      11.270 -11.292  -2.077  0.00  0.00    +0.156 C 
BRANCH   5   6
ATOM      6  N   CYS A   1       9.879 -10.963  -2.371  0.00  0.00    -0.237 NA
ATOM      7  H   CYS A   1       9.150 -11.698  -2.270  0.00  0.00    +0.142 HD
ENDBRANCH   5   6
BRANCH   5   8
ATOM      8  CB  CYS A   1      11.371 -12.674  -1.420  0.00  0.00    +0.095 C 
ATOM      9  SG  CYS A   1      10.377 -12.915   0.071  0.00  0.00    -0.080 S 
ENDBRANCH   5   8
ENDBRANCH   1   5
BRANCH   3  10
ATOM     10  CA  GLY A   2      12.223 -11.801  -5.710  0.00  0.00    +0.163 C 
BRANCH  10  11
ATOM     11  C   GLY A   2      12.633 -10.482  -6.330  0.00  0.00    +0.229 C 
ATOM     12  O   GLY A   2      13.607 -10.424  -7.086  0.00  0.00    -0.286 OA
ENDBRANCH  10  11
ENDBRANCH   3  10
TORSDOF 5
REMARK  Name = ../refined-set-2016/3ckb/3ckb_pocket.pdb
REMARK  146 active torsions:
REMARK  status: ('A' for Active; 'I' for Inactive)
REMARK    1  A    between atoms: _1  and  _3
REMARK    2  A    between atoms: _3  and  _4
REMARK    3  A    between atoms: _3  and  _6
REMARK    4  A    between atoms: _6  and  _7
REMARK    5  A    between atoms: _7  and  _8
REMARK    6  A    between atoms: _13  and  _15
REMARK    7  A    between atoms: _15  and  _16
REMARK    8  A    between atoms: _15  and  _18
REMARK    9  A    between atoms: _18  and  _19
REMARK   10  A    between atoms: _22  and  _24
REMARK   11  A    between atoms: _24  and  _25
REMARK   12  A    between atoms: _24  and  _27
REMARK   13  A    between atoms: _27  and  _28
REMARK   14  A    between atoms: _28  and  _29
REMARK   15  A    between atoms: _32  and  _34
REMARK   16  A    between atoms: _34  and  _35
REMARK   17  A    between atoms: _37  and  _39
REMARK   18  A    between atoms: _39  and  _40
REMARK   19  A    between atoms: _39  and  _42
REMARK   20  A    between atoms: _42  and  _43
REMARK   21  A    between atoms: _43  and  _44
REMARK   22  A    between atoms: _47  and  _49
REMARK   23  A    between atoms: _49  and  _50
REMARK   24  A    between atoms: _49  and  _52
REMARK   25  A    between atoms: _52  and  _53
REMARK   26  A    between atoms: _55  and  _57
REMARK   27  A    between atoms: _57  and  _58
REMARK   28  A    between atoms: _60  and  _62
REMARK   29  A    between atoms: _62  and  _63
REMARK   30  A    between atoms: _62  and  _65
REMARK   31  A    between atoms: _65  and  _66
REMARK   32  A    between atoms: _66  and  _67
REMARK   33  A    between atoms: _67  and  _68
REMARK   34  A    between atoms: _77  and  _79
REMARK   35  A    between atoms: _79  and  _80
REMARK   36  A    between atoms: _79  and  _82
REMARK   37  A    between atoms: _82  and  _83
REMARK   38  A    between atoms: _88  and  _90
REMARK   39  A    between atoms: _90  and  _91
REMARK   40  A    between atoms: _90  and  _93
REMARK   41  A    between atoms: _93  and  _94
REMARK   42  A    between atoms: _104  and  _106
REMARK   43  A    between atoms: _106  and  _107
REMARK   44  A    between atoms: _110  and  _112
REMARK   45  A    between atoms: _112  and  _113
REMARK   46  A    between atoms: _112  and  _115
REMARK   47  A    between atoms: _115  and  _116
REMARK   48  A    between atoms: _126  and  _128
REMARK   49  A    between atoms: _128  and  _129
REMARK   50  A    between atoms: _128  and  _131
REMARK   51  A    between atoms: _131  and  _132
REMARK   52  A    between atoms: _132  and  _133
REMARK   53  A    between atoms: _138  and  _140
REMARK   54  A    between atoms: _140  and  _141
REMARK   55  A    between atoms: _140  and  _143
REMARK   56  A    between atoms: _143  and  _144
REMARK   57  A    between atoms: _144  and  _145
REMARK   58  A    between atoms: _145  and  _146
REMARK   59  A    between atoms: _146  and  _147
REMARK   60  A    between atoms: _151  and  _153
REMARK   61  A    between atoms: _153  and  _154
REMARK   62  A    between atoms: _153  and  _156
REMARK   63  A    between atoms: _156  and  _157
REMARK   64  A    between atoms: _162  and  _164
REMARK   65  A    between atoms: _164  and  _165
REMARK   66  A    between atoms: _164  and  _167
REMARK   67  A    between atoms: _167  and  _168
REMARK   68  A    between atoms: _168  and  _169
REMARK   69  A    between atoms: _174  and  _176
REMARK   70  A    between atoms: _176  and  _177
REMARK   71  A    between atoms: _176  and  _179
REMARK   72  A    between atoms: _179  and  _180
REMARK   73  A    between atoms: _183  and  _185
REMARK   74  A    between atoms: _185  and  _186
REMARK   75  A    between atoms: _185  and  _188
REMARK   76  A    between atoms: _188  and  _189
REMARK   77  A    between atoms: _189  and  _190
REMARK   78  A    between atoms: _190  and  _191
REMARK   79  A    between atoms: _200  and  _202
REMARK   80  A    between atoms: _202  and  _203
REMARK   81  A    between atoms: _202  and  _205
REMARK   82  A    between atoms: _205  and  _206
REMARK   83  A    between atoms: _216  and  _218
REMARK   84  A    between atoms: _218  and  _219
REMARK   85  A    between atoms: _218  and  _221
REMARK   86  A    between atoms: _221  and  _222
REMARK   87  A    between atoms: _227  and  _229
REMARK   88  A    between atoms: _229  and  _230
REMARK   89  A    between atoms: _229  and  _232
REMARK   90  A    between atoms: _232  and  _233
REMARK   91  A    between atoms: _238  and  _239
REMARK   92  A    between atoms: _241  and  _243
REMARK   93  A    between atoms: _243  and  _244
REMARK   94  A    between atoms: _246  and  _248
REMARK   95  A    between atoms: _248  and  _249
REMARK   96  A    between atoms: _248  and  _251
REMARK   97  A    between atoms: _251  and  _252
REMARK   98  A    between atoms: _255  and  _257
REMARK   99  A    between atoms: _257  and  _258
REMARK  100  A    between atoms: _257  and  _260
REMARK  101  A    between atoms: _260  and  _261
REMARK  102  A    between atoms: _266  and  _267
REMARK  103  A    between atoms: _269  and  _271
REMARK  104  A    between atoms: _271  and  _272
REMARK  105  A    between atoms: _271  and  _274
REMARK  106  A    between atoms: _276  and  _278
REMARK  107  A    between atoms: _278  and  _279
REMARK  108  A    between atoms: _281  and  _283
REMARK  109  A    between atoms: _283  and  _284
REMARK  110  A    between atoms: _283  and  _286
REMARK  111  A    between atoms: _286  and  _287
REMARK  112  A    between atoms: _287  and  _288
REMARK  113  A    between atoms: _288  and  _289
REMARK  114  A    between atoms: _298  and  _300
REMARK  115  A    between atoms: _300  and  _301
REMARK  116  A    between atoms: _300  and  _303
REMARK  117  A    between atoms: _306  and  _308
REMARK  118  A    between atoms: _308  and  _309
REMARK  119  A    between atoms: _308  and  _311
REMARK  120  A    between atoms: _311  and  _312
REMARK  121  A    between atoms: _317  and  _319
REMARK  122  A    between atoms: _319  and  _320
REMARK  123  A    between atoms: _322  and  _324
REMARK  124  A    between atoms: _324  and  _325
REMARK  125  A    between atoms: _324  and  _327
REMARK  126  A    between atoms: _327  and  _328
REMARK  127  A    between atoms: _338  and  _340
REMARK  128  A    between atoms: _340  and  _341
REMARK  129  A    between atoms: _340  and  _343
REMARK  130  A    between atoms: _343  and  _344
REMARK  131  A    between atoms: _346  and  _348
REMARK  132  A    between atoms: _348  and  _349
REMARK  133  A    between atoms: _348  and  _351
REMARK  134  A    between atoms: _353  and  _355
REMARK  135  A    between atoms: _355  and  _356
REMARK  136  A    between atoms: _355  and  _358
REMARK  137  A    between atoms: _358  and  _359
REMARK  138  A    between atoms: _362  and  _364
REMARK  139  A    between atoms: _364  and  _365
REMARK  140  A    between atoms: _364  and  _367
REMARK  141  A    between atoms: _367  and  _368
REMARK  142  A    between atoms: _374  and  _376
REMARK  143  A    between atoms: _376  and  _377
REMARK  144  A    between atoms: _376  and  _379
REMARK  145  A    between atoms: _379  and  _380
REMARK  146  A    between atoms: _385  and  _386
REMARK                            x       y       z     vdW  Elec       q    Type
REMARK                         _______ _______ _______ _____ _____    ______ ____
ROOT
ATOM      1  CA  ARG A   1      14.149  -6.930  -3.527  0.00  0.00    +0.145 C 
ENDROOT
BRANCH   1   2
ATOM      2  C   ARG A   1      15.565  -7.435  -3.257  0.00  0.00    +0.238 C 
ATOM      3  N   VAL A   2      16.397  -6.561  -2.696  0.00  0.00    -0.298 N 
ATOM      4  H   VAL A   2      16.054  -5.597  -2.510  0.00  0.00    +0.150 HD
ATOM      5  O   ARG A   1      15.890  -8.582  -3.561  0.00  0.00    -0.274 OA
BRANCH   3   6
ATOM      6  CA  VAL A   2      17.772  -6.895  -2.329  0.00  0.00    +0.137 C 
BRANCH   6   7
ATOM      7  CB  VAL A   2      18.790  -6.539  -3.447  0.00  0.00    +0.026 C 
ATOM      8  CG2 VAL A   2      20.172  -7.066  -3.066  0.00  0.00    +0.002 C 
ATOM      9  CG1 VAL A   2      18.840  -5.037  -3.665  0.00  0.00    +0.002 C 
ENDBRANCH   6   7
BRANCH   6  10
ATOM     10  C   VAL A   2      18.126  -6.109  -1.064  0.00  0.00    +0.227 C 
ATOM     11  O   VAL A   2      17.627  -4.999  -0.852  0.00  0.00    -0.286 OA
ENDBRANCH   6  10
ENDBRANCH   3   6
ENDBRANCH   1   2
BRANCH   1  12
ATOM     12  N   ARG A   1      13.432  -7.739  -4.508  0.00  0.00    -0.238 NA
ATOM     13  H   ARG A   1      13.300  -8.756  -4.337  0.00  0.00    +0.142 HD
ENDBRANCH   1  12
BRANCH   1  14
ATOM     14  CB  ARG A   1      13.378  -6.903  -2.201  0.00  0.00    +0.030 C 
BRANCH  14  15
ATOM     15  CG  ARG A   1      11.946  -6.385  -2.284  0.00  0.00    +0.045 C 
BRANCH  15  16
ATOM     16  CD  ARG A   1      11.889  -4.951  -2.765  0.00  0.00    +0.174 C 
BRANCH  16  17
ATOM     17  NE  ARG A   1      10.654  -4.282  -2.364  0.00  0.00    -0.265 N 
ATOM     18  HE  ARG A   1      10.715  -3.588  -1.592  0.00  0.00    +0.259 HD
ATOM     19  CZ  ARG A   1       9.458  -4.489  -2.907  0.00  0.00    +0.342 C 
ATOM     20  NH2 ARG A   1       8.411  -3.818  -2.451  0.00  0.00    -0.292 N 
ATOM     21 HH21 ARG A   1       8.528  -3.136  -1.675  0.00  0.00    +0.255 HD
ATOM     22 HH22 ARG A   1       7.472  -3.973  -2.869  0.00  0.00    +0.255 HD
ATOM     23  NH1 ARG A   1       9.304  -5.358  -3.898  0.00  0.00    -0.292 N 
ATOM     24 HH11 ARG A   1      10.124  -5.886  -4.259  0.00  0.00    +0.255 HD
ATOM     25 HH12 ARG A   1       8.363  -5.511  -4.314  0.00  0.00    +0.255 HD
ENDBRANCH  16  17
ENDBRANCH  15  16
ENDBRANCH  14  15
ENDBRANCH   1  14
TORSDOF 9
REMARK  Name = ../refined-set-2016/3ckb/3ckb_pocket.pdb
REMARK  146 active torsions:
REMARK  status: ('A' for Active; 'I' for Inactive)
REMARK    1  A    between atoms: _1  and  _3
REMARK    2  A    between atoms: _3  and  _4
REMARK    3  A    between atoms: _3  and  _6
REMARK    4  A    between atoms: _6  and  _7
REMARK    5  A    between atoms: _7  and  _8
REMARK    6  A    between atoms: _13  and  _15
REMARK    7  A    between atoms: _15  and  _16
REMARK    8  A    between atoms: _15  and  _18
REMARK    9  A    between atoms: _18  and  _19
REMARK   10  A    between atoms: _22  and  _24
REMARK   11  A    between atoms: _24  and  _25
REMARK   12  A    between atoms: _24  and  _27
REMARK   13  A    between atoms: _27  and  _28
REMARK   14  A    between atoms: _28  and  _29
REMARK   15  A    between atoms: _32  and  _34
REMARK   16  A    between atoms: _34  and  _35
REMARK   17  A    between atoms: _37  and  _39
REMARK   18  A    between atoms: _39  and  _40
REMARK   19  A    between atoms: _39  and  _42
REMARK   20  A    between atoms: _42  and  _43
REMARK   21  A    between atoms: _43  and  _44
REMARK   22  A    between atoms: _47  and  _49
REMARK   23  A    between atoms: _49  and  _50
REMARK   24  A    between atoms: _49  and  _52
REMARK   25  A    between atoms: _52  and  _53
REMARK   26  A    between atoms: _55  and  _57
REMARK   27  A    between atoms: _57  and  _58
REMARK   28  A    between atoms: _60  and  _62
REMARK   29  A    between atoms: _62  and  _63
REMARK   30  A    between atoms: _62  and  _65
REMARK   31  A    between atoms: _65  and  _66
REMARK   32  A    between atoms: _66  and  _67
REMARK   33  A    between atoms: _67  and  _68
REMARK   34  A    between atoms: _77  and  _79
REMARK   35  A    between atoms: _79  and  _80
REMARK   36  A    between atoms: _79  and  _82
REMARK   37  A    between atoms: _82  and  _83
REMARK   38  A    between atoms: _88  and  _90
REMARK   39  A    between atoms: _90  and  _91
REMARK   40  A    between atoms: _90  and  _93
REMARK   41  A    between atoms: _93  and  _94
REMARK   42  A    between atoms: _104  and  _106
REMARK   43  A    between atoms: _106  and  _107
REMARK   44  A    between atoms: _110  and  _112
REMARK   45  A    between atoms: _112  and  _113
REMARK   46  A    between atoms: _112  and  _115
REMARK   47  A    between atoms: _115  and  _116
REMARK   48  A    between atoms: _126  and  _128
REMARK   49  A    between atoms: _128  and  _129
REMARK   50  A    between atoms: _128  and  _131
REMARK   51  A    between atoms: _131  and  _132
REMARK   52  A    between atoms: _132  and  _133
REMARK   53  A    between atoms: _138  and  _140
REMARK   54  A    between atoms: _140  and  _141
REMARK   55  A    between atoms: _140  and  _143
REMARK   56  A    between atoms: _143  and  _144
REMARK   57  A    between atoms: _144  and  _145
REMARK   58  A    between atoms: _145  and  _146
REMARK   59  A    between atoms: _146  and  _147
REMARK   60  A    between atoms: _151  and  _153
REMARK   61  A    between atoms: _153  and  _154
REMARK   62  A    between atoms: _153  and  _156
REMARK   63  A    between atoms: _156  and  _157
REMARK   64  A    between atoms: _162  and  _164
REMARK   65  A    between atoms: _164  and  _165
REMARK   66  A    between atoms: _164  and  _167
REMARK   67  A    between atoms: _167  and  _168
REMARK   68  A    between atoms: _168  and  _169
REMARK   69  A    between atoms: _174  and  _176
REMARK   70  A    between atoms: _176  and  _177
REMARK   71  A    between atoms: _176  and  _179
REMARK   72  A    between atoms: _179  and  _180
REMARK   73  A    between atoms: _183  and  _185
REMARK   74  A    between atoms: _185  and  _186
REMARK   75  A    between atoms: _185  and  _188
REMARK   76  A    between atoms: _188  and  _189
REMARK   77  A    between atoms: _189  and  _190
REMARK   78  A    between atoms: _190  and  _191
REMARK   79  A    between atoms: _200  and  _202
REMARK   80  A    between atoms: _202  and  _203
REMARK   81  A    between atoms: _202  and  _205
REMARK   82  A    between atoms: _205  and  _206
REMARK   83  A    between atoms: _216  and  _218
REMARK   84  A    between atoms: _218  and  _219
REMARK   85  A    between atoms: _218  and  _221
REMARK   86  A    between atoms: _221  and  _222
REMARK   87  A    between atoms: _227  and  _229
REMARK   88  A    between atoms: _229  and  _230
REMARK   89  A    between atoms: _229  and  _232
REMARK   90  A    between atoms: _232  and  _233
REMARK   91  A    between atoms: _238  and  _239
REMARK   92  A    between atoms: _241  and  _243
REMARK   93  A    between atoms: _243  and  _244
REMARK   94  A    between atoms: _246  and  _248
REMARK   95  A    between atoms: _248  and  _249
REMARK   96  A    between atoms: _248  and  _251
REMARK   97  A    between atoms: _251  and  _252
REMARK   98  A    between atoms: _255  and  _257
REMARK   99  A    between atoms: _257  and  _258
REMARK  100  A    between atoms: _257  and  _260
REMARK  101  A    between atoms: _260  and  _261
REMARK  102  A    between atoms: _266  and  _267
REMARK  103  A    between atoms: _269  and  _271
REMARK  104  A    between atoms: _271  and  _272
REMARK  105  A    between atoms: _271  and  _274
REMARK  106  A    between atoms: _276  and  _278
REMARK  107  A    between atoms: _278  and  _279
REMARK  108  A    between atoms: _281  and  _283
REMARK  109  A    between atoms: _283  and  _284
REMARK  110  A    between atoms: _283  and  _286
REMARK  111  A    between atoms: _286  and  _287
REMARK  112  A    between atoms: _287  and  _288
REMARK  113  A    between atoms: _288  and  _289
REMARK  114  A    between atoms: _298  and  _300
REMARK  115  A    between atoms: _300  and  _301
REMARK  116  A    between atoms: _300  and  _303
REMARK  117  A    between atoms: _306  and  _308
REMARK  118  A    between atoms: _308  and  _309
REMARK  119  A    between atoms: _308  and  _311
REMARK  120  A    between atoms: _311  and  _312
REMARK  121  A    between atoms: _317  and  _319
REMARK  122  A    between atoms: _319  and  _320
REMARK  123  A    between atoms: _322  and  _324
REMARK  124  A    between atoms: _324  and  _325
REMARK  125  A    between atoms: _324  and  _327
REMARK  126  A    between atoms: _327  and  _328
REMARK  127  A    between atoms: _338  and  _340
REMARK  128  A    between atoms: _340  and  _341
REMARK  129  A    between atoms: _340  and  _343
REMARK  130  A    between atoms: _343  and  _344
REMARK  131  A    between atoms: _346  and  _348
REMARK  132  A    between atoms: _348  and  _349
REMARK  133  A    between atoms: _348  and  _351
REMARK  134  A    between atoms: _353  and  _355
REMARK  135  A    between atoms: _355  and  _356
REMARK  136  A    between atoms: _355  and  _358
REMARK  137  A    between atoms: _358  and  _359
REMARK  138  A    between atoms: _362  and  _364
REMARK  139  A    between atoms: _364  and  _365
REMARK  140  A    between atoms: _364  and  _367
REMARK  141  A    between atoms: _367  and  _368
REMARK  142  A    between atoms: _374  and  _376
REMARK  143  A    between atoms: _376  and  _377
REMARK  144  A    between atoms: _376  and  _379
REMARK  145  A    between atoms: _379  and  _380
REMARK  146  A    between atoms: _385  and  _386
REMARK                            x       y       z     vdW  Elec       q    Type
REMARK                         _______ _______ _______ _____ _____    ______ ____
ROOT
ATOM      1  CA  TRP A   3      16.484 -12.672  -3.617  0.00  0.00    +0.153 C 
ENDROOT
BRANCH   1   4
ATOM      2  C   GLY A   2      16.426 -11.149  -1.711  0.00  0.00    +0.243 C 
ATOM      3  O   GLY A   2      17.634 -11.278  -1.505  0.00  0.00    -0.273 OA
ATOM      4  N   TRP A   3      15.789 -11.772  -2.698  0.00  0.00    -0.297 N 
ATOM      5  H   TRP A   3      14.768 -11.615  -2.820  0.00  0.00    +0.150 HD
BRANCH   2   6
ATOM      6  CA  GLY A   2      15.591 -10.255  -0.812  0.00  0.00    +0.176 C 
BRANCH   6   8
ATOM      7  C   ASN A   1      14.893 -11.600   1.073  0.00  0.00    +0.239 C 
ATOM      8  N   GLY A   2      15.754 -10.735   0.545  0.00  0.00    -0.296 N 
ATOM      9  H   GLY A   2      16.556 -10.398   1.115  0.00  0.00    +0.150 HD
ATOM     10  O   ASN A   1      13.901 -12.018   0.474  0.00  0.00    -0.274 OA
BRANCH   7  11
ATOM     11  CA  ASN A   1      15.204 -12.050   2.493  0.00  0.00    +0.154 C 
BRANCH  11  12
ATOM     12  N   ASN A   1      14.443 -11.379   3.528  0.00  0.00    -0.238 NA
ATOM     13  H   ASN A   1      13.411 -11.285   3.437  0.00  0.00    +0.142 HD
ENDBRANCH  11  12
BRANCH  11  14
ATOM     14  CB  ASN A   1      15.007 -13.565   2.630  0.00  0.00    +0.111 C 
BRANCH  14  15
ATOM     15  CG  ASN A   1      15.791 -14.361   1.594  0.00  0.00    +0.221 C 
ATOM     16  ND2 ASN A   1      15.356 -15.596   1.342  0.00  0.00    -0.329 N 
ATOM     17 HD21 ASN A   1      14.512 -15.960   1.829  0.00  0.00    +0.145 HD
ATOM     18 HD22 ASN A   1      15.860 -16.196   0.658  0.00  0.00    +0.145 HD
ATOM     19  OD1 ASN A   1      16.786 -13.881   1.044  0.00  0.00    -0.275 OA
ENDBRANCH  14  15
ENDBRANCH  11  14
ENDBRANCH   7  11
ENDBRANCH   6   8
ENDBRANCH   2   6
ENDBRANCH   1   4
BRANCH   1  20
ATOM     20  C   TRP A   3      17.223 -11.948  -4.738  0.00  0.00    +0.241 C 
ATOM     21  N   SER A   4      16.912 -10.671  -4.938  0.00  0.00    -0.295 N 
ATOM     22  H   SER A   4      16.213 -10.220  -4.314  0.00  0.00    +0.150 HD
ATOM     23  O   TRP A   3      18.053 -12.544  -5.414  0.00  0.00    -0.273 OA
BRANCH  21  24
ATOM     24  CA  SER A   4      17.519  -9.881  -6.005  0.00  0.00    +0.178 C 
BRANCH  24  25
ATOM     25  C   SER A   4      17.520 -10.680  -7.311  0.00  0.00    +0.243 C 
ATOM     26  N   CYS A   5      16.325 -11.051  -7.766  0.00  0.00    -0.296 N 
ATOM     27  H   CYS A   5      15.477 -10.771  -7.233  0.00  0.00    +0.150 HD
ATOM     28  O   SER A   4      18.568 -10.946  -7.893  0.00  0.00    -0.273 OA
BRANCH  26  29
ATOM     29  CA  CYS A   5      16.163 -11.835  -8.983  0.00  0.00    +0.160 C 
BRANCH  29  30
ATOM     30  C   CYS A   5      15.471 -11.100 -10.119  0.00  0.00    +0.242 C 
ATOM     31  N   ILE A   6      14.450 -10.327  -9.775  0.00  0.00    -0.298 N 
ATOM     32  H   ILE A   6      14.216 -10.215  -8.768  0.00  0.00    +0.150 HD
ATOM     33  O   CYS A   5      15.851 -11.236 -11.282  0.00  0.00    -0.273 OA
BRANCH  31  34
ATOM     34  CA  ILE A   6      13.650  -9.633 -10.769  0.00  0.00    +0.137 C 
BRANCH  34  35
ATOM     35  C   ILE A   6      13.773  -8.122 -10.785  0.00  0.00    +0.227 C 
ATOM     36  O   ILE A   6      13.535  -7.458  -9.778  0.00  0.00    -0.286 OA
ENDBRANCH  34  35
BRANCH  34  37
ATOM     37  CB  ILE A   6      12.162  -9.995 -10.569  0.00  0.00    +0.026 C 
ATOM     38  CG2 ILE A   6      11.304  -9.342 -11.645  0.00  0.00    +0.002 C 
BRANCH  37  39
ATOM     39  CG1 ILE A   6      12.014 -11.518 -10.575  0.00  0.00    +0.002 C 
ATOM     40  CD1 ILE A   6      10.608 -12.011 -10.368  0.00  0.00    +0.000 C 
ENDBRANCH  37  39
ENDBRANCH  34  37
ENDBRANCH  31  34
ENDBRANCH  29  30
BRANCH  29  41
ATOM     41  CB  CYS A   5      15.346 -13.101  -8.700  0.00  0.00    +0.098 C 
ATOM     42  SG  CYS A   5      16.130 -14.314  -7.653  0.00  0.00    -0.080 S 
ENDBRANCH  29  41
ENDBRANCH  26  29
ENDBRANCH  24  25
BRANCH  24  43
ATOM     43  CB  SER A   4      18.948  -9.454  -5.630  0.00  0.00    +0.166 C 
BRANCH  43  44
ATOM     44  OG  SER A   4      19.794 -10.567  -5.413  0.00  0.00    -0.380 OA
ATOM     45  H   SER A   4      19.431 -11.117  -4.674  0.00  0.00    +0.211 HD
ENDBRANCH  43  44
ENDBRANCH  24  43
ENDBRANCH  21  24
ENDBRANCH   1  20
BRANCH   1  46
ATOM     46  CB  TRP A   3      15.491 -13.644  -4.262  0.00  0.00    +0.057 C 
BRANCH  46  47
ATOM     47  CG  TRP A   3      14.647 -14.424  -3.310  0.00  0.00    -0.002 A 
ATOM     48  CD1 TRP A   3      14.763 -14.475  -1.953  0.00  0.00    +0.068 A 
ATOM     49  NE1 TRP A   3      13.821 -15.328  -1.427  0.00  0.00    -0.352 N 
ATOM     50  HE1 TRP A   3      13.696 -15.544  -0.417  0.00  0.00    +0.166 HD
ATOM     51  CE2 TRP A   3      13.075 -15.846  -2.451  0.00  0.00    +0.056 A 
ATOM     52  CZ2 TRP A   3      12.011 -16.749  -2.422  0.00  0.00    +0.017 A 
ATOM     53  CH2 TRP A   3      11.443 -17.099  -3.622  0.00  0.00    +0.001 A 
ATOM     54  CZ3 TRP A   3      11.907 -16.568  -4.837  0.00  0.00    +0.000 A 
ATOM     55  CE3 TRP A   3      12.967 -15.669  -4.867  0.00  0.00    +0.001 A 
ATOM     56  CD2 TRP A   3      13.567 -15.295  -3.654  0.00  0.00    +0.013 A 
ENDBRANCH  46  47
ENDBRANCH   1  46
TORSDOF 21
REMARK  Name = ../refined-set-2016/3ckb/3ckb_pocket.pdb
REMARK  146 active torsions:
REMARK  status: ('A' for Active; 'I' for Inactive)
REMARK    1  A    between atoms: _1  and  _3
REMARK    2  A    between atoms: _3  and  _4
REMARK    3  A    between atoms: _3  and  _6
REMARK    4  A    between atoms: _6  and  _7
REMARK    5  A    between atoms: _7  and  _8
REMARK    6  A    between atoms: _13  and  _15
REMARK    7  A    between atoms: _15  and  _16
REMARK    8  A    between atoms: _15  and  _18
REMARK    9  A    between atoms: _18  and  _19
REMARK   10  A    between atoms: _22  and  _24
REMARK   11  A    between atoms: _24  and  _25
REMARK   12  A    between atoms: _24  and  _27
REMARK   13  A    between atoms: _27  and  _28
REMARK   14  A    between atoms: _28  and  _29
REMARK   15  A    between atoms: _32  and  _34
REMARK   16  A    between atoms: _34  and  _35
REMARK   17  A    between atoms: _37  and  _39
REMARK   18  A    between atoms: _39  and  _40
REMARK   19  A    between atoms: _39  and  _42
REMARK   20  A    between atoms: _42  and  _43
REMARK   21  A    between atoms: _43  and  _44
REMARK   22  A    between atoms: _47  and  _49
REMARK   23  A    between atoms: _49  and  _50
REMARK   24  A    between atoms: _49  and  _52
REMARK   25  A    between atoms: _52  and  _53
REMARK   26  A    between atoms: _55  and  _57
REMARK   27  A    between atoms: _57  and  _58
REMARK   28  A    between atoms: _60  and  _62
REMARK   29  A    between atoms: _62  and  _63
REMARK   30  A    between atoms: _62  and  _65
REMARK   31  A    between atoms: _65  and  _66
REMARK   32  A    between atoms: _66  and  _67
REMARK   33  A    between atoms: _67  and  _68
REMARK   34  A    between atoms: _77  and  _79
REMARK   35  A    between atoms: _79  and  _80
REMARK   36  A    between atoms: _79  and  _82
REMARK   37  A    between atoms: _82  and  _83
REMARK   38  A    between atoms: _88  and  _90
REMARK   39  A    between atoms: _90  and  _91
REMARK   40  A    between atoms: _90  and  _93
REMARK   41  A    between atoms: _93  and  _94
REMARK   42  A    between atoms: _104  and  _106
REMARK   43  A    between atoms: _106  and  _107
REMARK   44  A    between atoms: _110  and  _112
REMARK   45  A    between atoms: _112  and  _113
REMARK   46  A    between atoms: _112  and  _115
REMARK   47  A    between atoms: _115  and  _116
REMARK   48  A    between atoms: _126  and  _128
REMARK   49  A    between atoms: _128  and  _129
REMARK   50  A    between atoms: _128  and  _131
REMARK   51  A    between atoms: _131  and  _132
REMARK   52  A    between atoms: _132  and  _133
REMARK   53  A    between atoms: _138  and  _140
REMARK   54  A    between atoms: _140  and  _141
REMARK   55  A    between atoms: _140  and  _143
REMARK   56  A    between atoms: _143  and  _144
REMARK   57  A    between atoms: _144  and  _145
REMARK   58  A    between atoms: _145  and  _146
REMARK   59  A    between atoms: _146  and  _147
REMARK   60  A    between atoms: _151  and  _153
REMARK   61  A    between atoms: _153  and  _154
REMARK   62  A    between atoms: _153  and  _156
REMARK   63  A    between atoms: _156  and  _157
REMARK   64  A    between atoms: _162  and  _164
REMARK   65  A    between atoms: _164  and  _165
REMARK   66  A    between atoms: _164  and  _167
REMARK   67  A    between atoms: _167  and  _168
REMARK   68  A    between atoms: _168  and  _169
REMARK   69  A    between atoms: _174  and  _176
REMARK   70  A    between atoms: _176  and  _177
REMARK   71  A    between atoms: _176  and  _179
REMARK   72  A    between atoms: _179  and  _180
REMARK   73  A    between atoms: _183  and  _185
REMARK   74  A    between atoms: _185  and  _186
REMARK   75  A    between atoms: _185  and  _188
REMARK   76  A    between atoms: _188  and  _189
REMARK   77  A    between atoms: _189  and  _190
REMARK   78  A    between atoms: _190  and  _191
REMARK   79  A    between atoms: _200  and  _202
REMARK   80  A    between atoms: _202  and  _203
REMARK   81  A    between atoms: _202  and  _205
REMARK   82  A    between atoms: _205  and  _206
REMARK   83  A    between atoms: _216  and  _218
REMARK   84  A    between atoms: _218  and  _219
REMARK   85  A    between atoms: _218  and  _221
REMARK   86  A    between atoms: _221  and  _222
REMARK   87  A    between atoms: _227  and  _229
REMARK   88  A    between atoms: _229  and  _230
REMARK   89  A    between atoms: _229  and  _232
REMARK   90  A    between atoms: _232  and  _233
REMARK   91  A    between atoms: _238  and  _239
REMARK   92  A    between atoms: _241  and  _243
REMARK   93  A    between atoms: _243  and  _244
REMARK   94  A    between atoms: _246  and  _248
REMARK   95  A    between atoms: _248  and  _249
REMARK   96  A    between atoms: _248  and  _251
REMARK   97  A    between atoms: _251  and  _252
REMARK   98  A    between atoms: _255  and  _257
REMARK   99  A    between atoms: _257  and  _258
REMARK  100  A    between atoms: _257  and  _260
REMARK  101  A    between atoms: _260  and  _261
REMARK  102  A    between atoms: _266  and  _267
REMARK  103  A    between atoms: _269  and  _271
REMARK  104  A    between atoms: _271  and  _272
REMARK  105  A    between atoms: _271  and  _274
REMARK  106  A    between atoms: _276  and  _278
REMARK  107  A    between atoms: _278  and  _279
REMARK  108  A    between atoms: _281  and  _283
REMARK  109  A    between atoms: _283  and  _284
REMARK  110  A    between atoms: _283  and  _286
REMARK  111  A    between atoms: _286  and  _287
REMARK  112  A    between atoms: _287  and  _288
REMARK  113  A    between atoms: _288  and  _289
REMARK  114  A    between atoms: _298  and  _300
REMARK  115  A    between atoms: _300  and  _301
REMARK  116  A    between atoms: _300  and  _303
REMARK  117  A    between atoms: _306  and  _308
REMARK  118  A    between atoms: _308  and  _309
REMARK  119  A    between atoms: _308  and  _311
REMARK  120  A    between atoms: _311  and  _312
REMARK  121  A    between atoms: _317  and  _319
REMARK  122  A    between atoms: _319  and  _320
REMARK  123  A    between atoms: _322  and  _324
REMARK  124  A    between atoms: _324  and  _325
REMARK  125  A    between atoms: _324  and  _327
REMARK  126  A    between atoms: _327  and  _328
REMARK  127  A    between atoms: _338  and  _340
REMARK  128  A    between atoms: _340  and  _341
REMARK  129  A    between atoms: _340  and  _343
REMARK  130  A    between atoms: _343  and  _344
REMARK  131  A    between atoms: _346  and  _348
REMARK  132  A    between atoms: _348  and  _349
REMARK  133  A    between atoms: _348  and  _351
REMARK  134  A    between atoms: _353  and  _355
REMARK  135  A    between atoms: _355  and  _356
REMARK  136  A    between atoms: _355  and  _358
REMARK  137  A    between atoms: _358  and  _359
REMARK  138  A    between atoms: _362  and  _364
REMARK  139  A    between atoms: _364  and  _365
REMARK  140  A    between atoms: _364  and  _367
REMARK  141  A    between atoms: _367  and  _368
REMARK  142  A    between atoms: _374  and  _376
REMARK  143  A    between atoms: _376  and  _377
REMARK  144  A    between atoms: _376  and  _379
REMARK  145  A    between atoms: _379  and  _380
REMARK  146  A    between atoms: _385  and  _386
REMARK                            x       y       z     vdW  Elec       q    Type
REMARK                         _______ _______ _______ _____ _____    ______ ____
ROOT
ATOM      1  CB  PHE A   1      19.958  -7.719  -8.769  0.00  0.00    +0.051 C 
ENDROOT
BRANCH   1   2
ATOM      2  CG  PHE A   1      18.692  -7.119  -8.226  0.00  0.00    -0.020 A 
ATOM      3  CD2 PHE A   1      18.747  -6.032  -7.354  0.00  0.00    -0.004 A 
ATOM      4  CE2 PHE A   1      17.578  -5.464  -6.838  0.00  0.00    -0.000 A 
ATOM      5  CZ  PHE A   1      16.336  -5.991  -7.196  0.00  0.00    -0.000 A 
ATOM      6  CE1 PHE A   1      16.271  -7.080  -8.071  0.00  0.00    -0.000 A 
ATOM      7  CD1 PHE A   1      17.448  -7.637  -8.580  0.00  0.00    -0.004 A 
ENDBRANCH   1   2
BRANCH   1   8
ATOM      8  CA  PHE A   1      20.241  -7.361 -10.234  0.00  0.00    +0.137 C 
BRANCH   8   9
ATOM      9  N   PHE A   1      21.518  -7.945 -10.631  0.00  0.00    -0.239 NA
ATOM     10  H   PHE A   1      22.021  -8.538  -9.940  0.00  0.00    +0.142 HD
ENDBRANCH   8   9
BRANCH   8  11
ATOM     11  C   PHE A   1      20.177  -5.849 -10.419  0.00  0.00    +0.224 C 
ATOM     12  O   PHE A   1      19.123  -5.302 -10.753  0.00  0.00    -0.287 OA
ENDBRANCH   8  11
ENDBRANCH   1   8
TORSDOF 4
REMARK  Name = ../refined-set-2016/3ckb/3ckb_pocket.pdb
REMARK  146 active torsions:
REMARK  status: ('A' for Active; 'I' for Inactive)
REMARK    1  A    between atoms: _1  and  _3
REMARK    2  A    between atoms: _3  and  _4
REMARK    3  A    between atoms: _3  and  _6
REMARK    4  A    between atoms: _6  and  _7
REMARK    5  A    between atoms: _7  and  _8
REMARK    6  A    between atoms: _13  and  _15
REMARK    7  A    between atoms: _15  and  _16
REMARK    8  A    between atoms: _15  and  _18
REMARK    9  A    between atoms: _18  and  _19
REMARK   10  A    between atoms: _22  and  _24
REMARK   11  A    between atoms: _24  and  _25
REMARK   12  A    between atoms: _24  and  _27
REMARK   13  A    between atoms: _27  and  _28
REMARK   14  A    between atoms: _28  and  _29
REMARK   15  A    between atoms: _32  and  _34
REMARK   16  A    between atoms: _34  and  _35
REMARK   17  A    between atoms: _37  and  _39
REMARK   18  A    between atoms: _39  and  _40
REMARK   19  A    between atoms: _39  and  _42
REMARK   20  A    between atoms: _42  and  _43
REMARK   21  A    between atoms: _43  and  _44
REMARK   22  A    between atoms: _47  and  _49
REMARK   23  A    between atoms: _49  and  _50
REMARK   24  A    between atoms: _49  and  _52
REMARK   25  A    between atoms: _52  and  _53
REMARK   26  A    between atoms: _55  and  _57
REMARK   27  A    between atoms: _57  and  _58
REMARK   28  A    between atoms: _60  and  _62
REMARK   29  A    between atoms: _62  and  _63
REMARK   30  A    between atoms: _62  and  _65
REMARK   31  A    between atoms: _65  and  _66
REMARK   32  A    between atoms: _66  and  _67
REMARK   33  A    between atoms: _67  and  _68
REMARK   34  A    between atoms: _77  and  _79
REMARK   35  A    between atoms: _79  and  _80
REMARK   36  A    between atoms: _79  and  _82
REMARK   37  A    between atoms: _82  and  _83
REMARK   38  A    between atoms: _88  and  _90
REMARK   39  A    between atoms: _90  and  _91
REMARK   40  A    between atoms: _90  and  _93
REMARK   41  A    between atoms: _93  and  _94
REMARK   42  A    between atoms: _104  and  _106
REMARK   43  A    between atoms: _106  and  _107
REMARK   44  A    between atoms: _110  and  _112
REMARK   45  A    between atoms: _112  and  _113
REMARK   46  A    between atoms: _112  and  _115
REMARK   47  A    between atoms: _115  and  _116
REMARK   48  A    between atoms: _126  and  _128
REMARK   49  A    between atoms: _128  and  _129
REMARK   50  A    between atoms: _128  and  _131
REMARK   51  A    between atoms: _131  and  _132
REMARK   52  A    between atoms: _132  and  _133
REMARK   53  A    between atoms: _138  and  _140
REMARK   54  A    between atoms: _140  and  _141
REMARK   55  A    between atoms: _140  and  _143
REMARK   56  A    between atoms: _143  and  _144
REMARK   57  A    between atoms: _144  and  _145
REMARK   58  A    between atoms: _145  and  _146
REMARK   59  A    between atoms: _146  and  _147
REMARK   60  A    between atoms: _151  and  _153
REMARK   61  A    between atoms: _153  and  _154
REMARK   62  A    between atoms: _153  and  _156
REMARK   63  A    between atoms: _156  and  _157
REMARK   64  A    between atoms: _162  and  _164
REMARK   65  A    between atoms: _164  and  _165
REMARK   66  A    between atoms: _164  and  _167
REMARK   67  A    between atoms: _167  and  _168
REMARK   68  A    between atoms: _168  and  _169
REMARK   69  A    between atoms: _174  and  _176
REMARK   70  A    between atoms: _176  and  _177
REMARK   71  A    between atoms: _176  and  _179
REMARK   72  A    between atoms: _179  and  _180
REMARK   73  A    between atoms: _183  and  _185
REMARK   74  A    between atoms: _185  and  _186
REMARK   75  A    between atoms: _185  and  _188
REMARK   76  A    between atoms: _188  and  _189
REMARK   77  A    between atoms: _189  and  _190
REMARK   78  A    between atoms: _190  and  _191
REMARK   79  A    between atoms: _200  and  _202
REMARK   80  A    between atoms: _202  and  _203
REMARK   81  A    between atoms: _202  and  _205
REMARK   82  A    between atoms: _205  and  _206
REMARK   83  A    between atoms: _216  and  _218
REMARK   84  A    between atoms: _218  and  _219
REMARK   85  A    between atoms: _218  and  _221
REMARK   86  A    between atoms: _221  and  _222
REMARK   87  A    between atoms: _227  and  _229
REMARK   88  A    between atoms: _229  and  _230
REMARK   89  A    between atoms: _229  and  _232
REMARK   90  A    between atoms: _232  and  _233
REMARK   91  A    between atoms: _238  and  _239
REMARK   92  A    between atoms: _241  and  _243
REMARK   93  A    between atoms: _243  and  _244
REMARK   94  A    between atoms: _246  and  _248
REMARK   95  A    between atoms: _248  and  _249
REMARK   96  A    between atoms: _248  and  _251
REMARK   97  A    between atoms: _251  and  _252
REMARK   98  A    between atoms: _255  and  _257
REMARK   99  A    between atoms: _257  and  _258
REMARK  100  A    between atoms: _257  and  _260
REMARK  101  A    between atoms: _260  and  _261
REMARK  102  A    between atoms: _266  and  _267
REMARK  103  A    between atoms: _269  and  _271
REMARK  104  A    between atoms: _271  and  _272
REMARK  105  A    between atoms: _271  and  _274
REMARK  106  A    between atoms: _276  and  _278
REMARK  107  A    between atoms: _278  and  _279
REMARK  108  A    between atoms: _281  and  _283
REMARK  109  A    between atoms: _283  and  _284
REMARK  110  A    between atoms: _283  and  _286
REMARK  111  A    between atoms: _286  and  _287
REMARK  112  A    between atoms: _287  and  _288
REMARK  113  A    between atoms: _288  and  _289
REMARK  114  A    between atoms: _298  and  _300
REMARK  115  A    between atoms: _300  and  _301
REMARK  116  A    between atoms: _300  and  _303
REMARK  117  A    between atoms: _306  and  _308
REMARK  118  A    between atoms: _308  and  _309
REMARK  119  A    between atoms: _308  and  _311
REMARK  120  A    between atoms: _311  and  _312
REMARK  121  A    between atoms: _317  and  _319
REMARK  122  A    between atoms: _319  and  _320
REMARK  123  A    between atoms: _322  and  _324
REMARK  124  A    between atoms: _324  and  _325
REMARK  125  A    between atoms: _324  and  _327
REMARK  126  A    between atoms: _327  and  _328
REMARK  127  A    between atoms: _338  and  _340
REMARK  128  A    between atoms: _340  and  _341
REMARK  129  A    between atoms: _340  and  _343
REMARK  130  A    between atoms: _343  and  _344
REMARK  131  A    between atoms: _346  and  _348
REMARK  132  A    between atoms: _348  and  _349
REMARK  133  A    between atoms: _348  and  _351
REMARK  134  A    between atoms: _353  and  _355
REMARK  135  A    between atoms: _355  and  _356
REMARK  136  A    between atoms: _355  and  _358
REMARK  137  A    between atoms: _358  and  _359
REMARK  138  A    between atoms: _362  and  _364
REMARK  139  A    between atoms: _364  and  _365
REMARK  140  A    between atoms: _364  and  _367
REMARK  141  A    between atoms: _367  and  _368
REMARK  142  A    between atoms: _374  and  _376
REMARK  143  A    between atoms: _376  and  _377
REMARK  144  A    between atoms: _376  and  _379
REMARK  145  A    between atoms: _379  and  _380
REMARK  146  A    between atoms: _385  and  _386
REMARK                            x       y       z     vdW  Elec       q    Type
REMARK                         _______ _______ _______ _____ _____    ______ ____
ROOT
ATOM      1  CG  TYR A   1       7.615 -16.758   4.606  0.00  0.00    -0.020 A 
ATOM      2  CD2 TYR A   1       7.593 -17.504   5.783  0.00  0.00    -0.001 A 
ATOM      3  CE2 TYR A   1       8.664 -18.324   6.140  0.00  0.00    +0.036 A 
ATOM      4  CZ  TYR A   1       9.773 -18.406   5.306  0.00  0.00    +0.134 A 
ATOM      5  CE1 TYR A   1       9.819 -17.678   4.125  0.00  0.00    +0.036 A 
ATOM      6  CD1 TYR A   1       8.739 -16.858   3.780  0.00  0.00    -0.001 A 
ENDROOT
BRANCH   4   7
ATOM      7  OH  TYR A   1      10.831 -19.214   5.652  0.00  0.00    -0.506 OA
ATOM      8  HH  TYR A   1      10.637 -19.658   6.516  0.00  0.00    +0.292 HD
ENDBRANCH   4   7
BRANCH   1   9
ATOM      9  CB  TYR A   1       6.482 -15.822   4.262  0.00  0.00    +0.051 C 
BRANCH   9  10
ATOM     10  CA  TYR A   1       6.982 -14.407   3.972  0.00  0.00    +0.137 C 
BRANCH  10  11
ATOM     11  N   TYR A   1       8.004 -14.054   4.950  0.00  0.00    -0.239 NA
ATOM     12  H   TYR A   1       7.920 -14.427   5.917  0.00  0.00    +0.142 HD
ENDBRANCH  10  11
BRANCH  10  13
ATOM     13  C   TYR A   1       5.850 -13.390   4.063  0.00  0.00    +0.224 C 
ATOM     14  O   TYR A   1       5.347 -13.106   5.151  0.00  0.00    -0.287 OA
ENDBRANCH  10  13
ENDBRANCH   9  10
ENDBRANCH   1   9
TORSDOF 5
REMARK  Name = ../refined-set-2016/3ckb/3ckb_pocket.pdb
REMARK  146 active torsions:
REMARK  status: ('A' for Active; 'I' for Inactive)
REMARK    1  A    between atoms: _1  and  _3
REMARK    2  A    between atoms: _3  and  _4
REMARK    3  A    between atoms: _3  and  _6
REMARK    4  A    between atoms: _6  and  _7
REMARK    5  A    between atoms: _7  and  _8
REMARK    6  A    between atoms: _13  and  _15
REMARK    7  A    between atoms: _15  and  _16
REMARK    8  A    between atoms: _15  and  _18
REMARK    9  A    between atoms: _18  and  _19
REMARK   10  A    between atoms: _22  and  _24
REMARK   11  A    between atoms: _24  and  _25
REMARK   12  A    between atoms: _24  and  _27
REMARK   13  A    between atoms: _27  and  _28
REMARK   14  A    between atoms: _28  and  _29
REMARK   15  A    between atoms: _32  and  _34
REMARK   16  A    between atoms: _34  and  _35
REMARK   17  A    between atoms: _37  and  _39
REMARK   18  A    between atoms: _39  and  _40
REMARK   19  A    between atoms: _39  and  _42
REMARK   20  A    between atoms: _42  and  _43
REMARK   21  A    between atoms: _43  and  _44
REMARK   22  A    between atoms: _47  and  _49
REMARK   23  A    between atoms: _49  and  _50
REMARK   24  A    between atoms: _49  and  _52
REMARK   25  A    between atoms: _52  and  _53
REMARK   26  A    between atoms: _55  and  _57
REMARK   27  A    between atoms: _57  and  _58
REMARK   28  A    between atoms: _60  and  _62
REMARK   29  A    between atoms: _62  and  _63
REMARK   30  A    between atoms: _62  and  _65
REMARK   31  A    between atoms: _65  and  _66
REMARK   32  A    between atoms: _66  and  _67
REMARK   33  A    between atoms: _67  and  _68
REMARK   34  A    between atoms: _77  and  _79
REMARK   35  A    between atoms: _79  and  _80
REMARK   36  A    between atoms: _79  and  _82
REMARK   37  A    between atoms: _82  and  _83
REMARK   38  A    between atoms: _88  and  _90
REMARK   39  A    between atoms: _90  and  _91
REMARK   40  A    between atoms: _90  and  _93
REMARK   41  A    between atoms: _93  and  _94
REMARK   42  A    between atoms: _104  and  _106
REMARK   43  A    between atoms: _106  and  _107
REMARK   44  A    between atoms: _110  and  _112
REMARK   45  A    between atoms: _112  and  _113
REMARK   46  A    between atoms: _112  and  _115
REMARK   47  A    between atoms: _115  and  _116
REMARK   48  A    between atoms: _126  and  _128
REMARK   49  A    between atoms: _128  and  _129
REMARK   50  A    between atoms: _128  and  _131
REMARK   51  A    between atoms: _131  and  _132
REMARK   52  A    between atoms: _132  and  _133
REMARK   53  A    between atoms: _138  and  _140
REMARK   54  A    between atoms: _140  and  _141
REMARK   55  A    between atoms: _140  and  _143
REMARK   56  A    between atoms: _143  and  _144
REMARK   57  A    between atoms: _144  and  _145
REMARK   58  A    between atoms: _145  and  _146
REMARK   59  A    between atoms: _146  and  _147
REMARK   60  A    between atoms: _151  and  _153
REMARK   61  A    between atoms: _153  and  _154
REMARK   62  A    between atoms: _153  and  _156
REMARK   63  A    between atoms: _156  and  _157
REMARK   64  A    between atoms: _162  and  _164
REMARK   65  A    between atoms: _164  and  _165
REMARK   66  A    between atoms: _164  and  _167
REMARK   67  A    between atoms: _167  and  _168
REMARK   68  A    between atoms: _168  and  _169
REMARK   69  A    between atoms: _174  and  _176
REMARK   70  A    between atoms: _176  and  _177
REMARK   71  A    between atoms: _176  and  _179
REMARK   72  A    between atoms: _179  and  _180
REMARK   73  A    between atoms: _183  and  _185
REMARK   74  A    between atoms: _185  and  _186
REMARK   75  A    between atoms: _185  and  _188
REMARK   76  A    between atoms: _188  and  _189
REMARK   77  A    between atoms: _189  and  _190
REMARK   78  A    between atoms: _190  and  _191
REMARK   79  A    between atoms: _200  and  _202
REMARK   80  A    between atoms: _202  and  _203
REMARK   81  A    between atoms: _202  and  _205
REMARK   82  A    between atoms: _205  and  _206
REMARK   83  A    between atoms: _216  and  _218
REMARK   84  A    between atoms: _218  and  _219
REMARK   85  A    between atoms: _218  and  _221
REMARK   86  A    between atoms: _221  and  _222
REMARK   87  A    between atoms: _227  and  _229
REMARK   88  A    between atoms: _229  and  _230
REMARK   89  A    between atoms: _229  and  _232
REMARK   90  A    between atoms: _232  and  _233
REMARK   91  A    between atoms: _238  and  _239
REMARK   92  A    between atoms: _241  and  _243
REMARK   93  A    between atoms: _243  and  _244
REMARK   94  A    between atoms: _246  and  _248
REMARK   95  A    between atoms: _248  and  _249
REMARK   96  A    between atoms: _248  and  _251
REMARK   97  A    between atoms: _251  and  _252
REMARK   98  A    between atoms: _255  and  _257
REMARK   99  A    between atoms: _257  and  _258
REMARK  100  A    between atoms: _257  and  _260
REMARK  101  A    between atoms: _260  and  _261
REMARK  102  A    between atoms: _266  and  _267
REMARK  103  A    between atoms: _269  and  _271
REMARK  104  A    between atoms: _271  and  _272
REMARK  105  A    between atoms: _271  and  _274
REMARK  106  A    between atoms: _276  and  _278
REMARK  107  A    between atoms: _278  and  _279
REMARK  108  A    between atoms: _281  and  _283
REMARK  109  A    between atoms: _283  and  _284
REMARK  110  A    between atoms: _283  and  _286
REMARK  111  A    between atoms: _286  and  _287
REMARK  112  A    between atoms: _287  and  _288
REMARK  113  A    between atoms: _288  and  _289
REMARK  114  A    between atoms: _298  and  _300
REMARK  115  A    between atoms: _300  and  _301
REMARK  116  A    between atoms: _300  and  _303
REMARK  117  A    between atoms: _306  and  _308
REMARK  118  A    between atoms: _308  and  _309
REMARK  119  A    between atoms: _308  and  _311
REMARK  120  A    between atoms: _311  and  _312
REMARK  121  A    between atoms: _317  and  _319
REMARK  122  A    between atoms: _319  and  _320
REMARK  123  A    between atoms: _322  and  _324
REMARK  124  A    between atoms: _324  and  _325
REMARK  125  A    between atoms: _324  and  _327
REMARK  126  A    between atoms: _327  and  _328
REMARK  127  A    between atoms: _338  and  _340
REMARK  128  A    between atoms: _340  and  _341
REMARK  129  A    between atoms: _340  and  _343
REMARK  130  A    between atoms: _343  and  _344
REMARK  131  A    between atoms: _346  and  _348
REMARK  132  A    between atoms: _348  and  _349
REMARK  133  A    between atoms: _348  and  _351
REMARK  134  A    between atoms: _353  and  _355
REMARK  135  A    between atoms: _355  and  _356
REMARK  136  A    between atoms: _355  and  _358
REMARK  137  A    between atoms: _358  and  _359
REMARK  138  A    between atoms: _362  and  _364
REMARK  139  A    between atoms: _364  and  _365
REMARK  140  A    between atoms: _364  and  _367
REMARK  141  A    between atoms: _367  and  _368
REMARK  142  A    between atoms: _374  and  _376
REMARK  143  A    between atoms: _376  and  _377
REMARK  144  A    between atoms: _376  and  _379
REMARK  145  A    between atoms: _379  and  _380
REMARK  146  A    between atoms: _385  and  _386
REMARK                            x       y       z     vdW  Elec       q    Type
REMARK                         _______ _______ _______ _____ _____    ______ ____
ROOT
ATOM      1  O   HOH     1      13.972 -18.614  -0.037  0.00  0.00    +0.000 OA
ENDROOT
TORSDOF 0
REMARK  Name = ../refined-set-2016/3ckb/3ckb_pocket.pdb
REMARK  146 active torsions:
REMARK  status: ('A' for Active; 'I' for Inactive)
REMARK    1  A    between atoms: _1  and  _3
REMARK    2  A    between atoms: _3  and  _4
REMARK    3  A    between atoms: _3  and  _6
REMARK    4  A    between atoms: _6  and  _7
REMARK    5  A    between atoms: _7  and  _8
REMARK    6  A    between atoms: _13  and  _15
REMARK    7  A    between atoms: _15  and  _16
REMARK    8  A    between atoms: _15  and  _18
REMARK    9  A    between atoms: _18  and  _19
REMARK   10  A    between atoms: _22  and  _24
REMARK   11  A    between atoms: _24  and  _25
REMARK   12  A    between atoms: _24  and  _27
REMARK   13  A    between atoms: _27  and  _28
REMARK   14  A    between atoms: _28  and  _29
REMARK   15  A    between atoms: _32  and  _34
REMARK   16  A    between atoms: _34  and  _35
REMARK   17  A    between atoms: _37  and  _39
REMARK   18  A    between atoms: _39  and  _40
REMARK   19  A    between atoms: _39  and  _42
REMARK   20  A    between atoms: _42  and  _43
REMARK   21  A    between atoms: _43  and  _44
REMARK   22  A    between atoms: _47  and  _49
REMARK   23  A    between atoms: _49  and  _50
REMARK   24  A    between atoms: _49  and  _52
REMARK   25  A    between atoms: _52  and  _53
REMARK   26  A    between atoms: _55  and  _57
REMARK   27  A    between atoms: _57  and  _58
REMARK   28  A    between atoms: _60  and  _62
REMARK   29  A    between atoms: _62  and  _63
REMARK   30  A    between atoms: _62  and  _65
REMARK   31  A    between atoms: _65  and  _66
REMARK   32  A    between atoms: _66  and  _67
REMARK   33  A    between atoms: _67  and  _68
REMARK   34  A    between atoms: _77  and  _79
REMARK   35  A    between atoms: _79  and  _80
REMARK   36  A    between atoms: _79  and  _82
REMARK   37  A    between atoms: _82  and  _83
REMARK   38  A    between atoms: _88  and  _90
REMARK   39  A    between atoms: _90  and  _91
REMARK   40  A    between atoms: _90  and  _93
REMARK   41  A    between atoms: _93  and  _94
REMARK   42  A    between atoms: _104  and  _106
REMARK   43  A    between atoms: _106  and  _107
REMARK   44  A    between atoms: _110  and  _112
REMARK   45  A    between atoms: _112  and  _113
REMARK   46  A    between atoms: _112  and  _115
REMARK   47  A    between atoms: _115  and  _116
REMARK   48  A    between atoms: _126  and  _128
REMARK   49  A    between atoms: _128  and  _129
REMARK   50  A    between atoms: _128  and  _131
REMARK   51  A    between atoms: _131  and  _132
REMARK   52  A    between atoms: _132  and  _133
REMARK   53  A    between atoms: _138  and  _140
REMARK   54  A    between atoms: _140  and  _141
REMARK   55  A    between atoms: _140  and  _143
REMARK   56  A    between atoms: _143  and  _144
REMARK   57  A    between atoms: _144  and  _145
REMARK   58  A    between atoms: _145  and  _146
REMARK   59  A    between atoms: _146  and  _147
REMARK   60  A    between atoms: _151  and  _153
REMARK   61  A    between atoms: _153  and  _154
REMARK   62  A    between atoms: _153  and  _156
REMARK   63  A    between atoms: _156  and  _157
REMARK   64  A    between atoms: _162  and  _164
REMARK   65  A    between atoms: _164  and  _165
REMARK   66  A    between atoms: _164  and  _167
REMARK   67  A    between atoms: _167  and  _168
REMARK   68  A    between atoms: _168  and  _169
REMARK   69  A    between atoms: _174  and  _176
REMARK   70  A    between atoms: _176  and  _177
REMARK   71  A    between atoms: _176  and  _179
REMARK   72  A    between atoms: _179  and  _180
REMARK   73  A    between atoms: _183  and  _185
REMARK   74  A    between atoms: _185  and  _186
REMARK   75  A    between atoms: _185  and  _188
REMARK   76  A    between atoms: _188  and  _189
REMARK   77  A    between atoms: _189  and  _190
REMARK   78  A    between atoms: _190  and  _191
REMARK   79  A    between atoms: _200  and  _202
REMARK   80  A    between atoms: _202  and  _203
REMARK   81  A    between atoms: _202  and  _205
REMARK   82  A    between atoms: _205  and  _206
REMARK   83  A    between atoms: _216  and  _218
REMARK   84  A    between atoms: _218  and  _219
REMARK   85  A    between atoms: _218  and  _221
REMARK   86  A    between atoms: _221  and  _222
REMARK   87  A    between atoms: _227  and  _229
REMARK   88  A    between atoms: _229  and  _230
REMARK   89  A    between atoms: _229  and  _232
REMARK   90  A    between atoms: _232  and  _233
REMARK   91  A    between atoms: _238  and  _239
REMARK   92  A    between atoms: _241  and  _243
REMARK   93  A    between atoms: _243  and  _244
REMARK   94  A    between atoms: _246  and  _248
REMARK   95  A    between atoms: _248  and  _249
REMARK   96  A    between atoms: _248  and  _251
REMARK   97  A    between atoms: _251  and  _252
REMARK   98  A    between atoms: _255  and  _257
REMARK   99  A    between atoms: _257  and  _258
REMARK  100  A    between atoms: _257  and  _260
REMARK  101  A    between atoms: _260  and  _261
REMARK  102  A    between atoms: _266  and  _267
REMARK  103  A    between atoms: _269  and  _271
REMARK  104  A    between atoms: _271  and  _272
REMARK  105  A    between atoms: _271  and  _274
REMARK  106  A    between atoms: _276  and  _278
REMARK  107  A    between atoms: _278  and  _279
REMARK  108  A    between atoms: _281  and  _283
REMARK  109  A    between atoms: _283  and  _284
REMARK  110  A    between atoms: _283  and  _286
REMARK  111  A    between atoms: _286  and  _287
REMARK  112  A    between atoms: _287  and  _288
REMARK  113  A    between atoms: _288  and  _289
REMARK  114  A    between atoms: _298  and  _300
REMARK  115  A    between atoms: _300  and  _301
REMARK  116  A    between atoms: _300  and  _303
REMARK  117  A    between atoms: _306  and  _308
REMARK  118  A    between atoms: _308  and  _309
REMARK  119  A    between atoms: _308  and  _311
REMARK  120  A    between atoms: _311  and  _312
REMARK  121  A    between atoms: _317  and  _319
REMARK  122  A    between atoms: _319  and  _320
REMARK  123  A    between atoms: _322  and  _324
REMARK  124  A    between atoms: _324  and  _325
REMARK  125  A    between atoms: _324  and  _327
REMARK  126  A    between atoms: _327  and  _328
REMARK  127  A    between atoms: _338  and  _340
REMARK  128  A    between atoms: _340  and  _341
REMARK  129  A    between atoms: _340  and  _343
REMARK  130  A    between atoms: _343  and  _344
REMARK  131  A    between atoms: _346  and  _348
REMARK  132  A    between atoms: _348  and  _349
REMARK  133  A    between atoms: _348  and  _351
REMARK  134  A    between atoms: _353  and  _355
REMARK  135  A    between atoms: _355  and  _356
REMARK  136  A    between atoms: _355  and  _358
REMARK  137  A    between atoms: _358  and  _359
REMARK  138  A    between atoms: _362  and  _364
REMARK  139  A    between atoms: _364  and  _365
REMARK  140  A    between atoms: _364  and  _367
REMARK  141  A    between atoms: _367  and  _368
REMARK  142  A    between atoms: _374  and  _376
REMARK  143  A    between atoms: _376  and  _377
REMARK  144  A    between atoms: _376  and  _379
REMARK  145  A    between atoms: _379  and  _380
REMARK  146  A    between atoms: _385  and  _386
REMARK                            x       y       z     vdW  Elec       q    Type
REMARK                         _______ _______ _______ _____ _____    ______ ____
ROOT
ATOM      1  O   HOH     1       5.190 -21.120  -5.553  0.00  0.00    +0.000 OA
ENDROOT
TORSDOF 0
REMARK  Name = ../refined-set-2016/3ckb/3ckb_pocket.pdb
REMARK  146 active torsions:
REMARK  status: ('A' for Active; 'I' for Inactive)
REMARK    1  A    between atoms: _1  and  _3
REMARK    2  A    between atoms: _3  and  _4
REMARK    3  A    between atoms: _3  and  _6
REMARK    4  A    between atoms: _6  and  _7
REMARK    5  A    between atoms: _7  and  _8
REMARK    6  A    between atoms: _13  and  _15
REMARK    7  A    between atoms: _15  and  _16
REMARK    8  A    between atoms: _15  and  _18
REMARK    9  A    between atoms: _18  and  _19
REMARK   10  A    between atoms: _22  and  _24
REMARK   11  A    between atoms: _24  and  _25
REMARK   12  A    between atoms: _24  and  _27
REMARK   13  A    between atoms: _27  and  _28
REMARK   14  A    between atoms: _28  and  _29
REMARK   15  A    between atoms: _32  and  _34
REMARK   16  A    between atoms: _34  and  _35
REMARK   17  A    between atoms: _37  and  _39
REMARK   18  A    between atoms: _39  and  _40
REMARK   19  A    between atoms: _39  and  _42
REMARK   20  A    between atoms: _42  and  _43
REMARK   21  A    between atoms: _43  and  _44
REMARK   22  A    between atoms: _47  and  _49
REMARK   23  A    between atoms: _49  and  _50
REMARK   24  A    between atoms: _49  and  _52
REMARK   25  A    between atoms: _52  and  _53
REMARK   26  A    between atoms: _55  and  _57
REMARK   27  A    between atoms: _57  and  _58
REMARK   28  A    between atoms: _60  and  _62
REMARK   29  A    between atoms: _62  and  _63
REMARK   30  A    between atoms: _62  and  _65
REMARK   31  A    between atoms: _65  and  _66
REMARK   32  A    between atoms: _66  and  _67
REMARK   33  A    between atoms: _67  and  _68
REMARK   34  A    between atoms: _77  and  _79
REMARK   35  A    between atoms: _79  and  _80
REMARK   36  A    between atoms: _79  and  _82
REMARK   37  A    between atoms: _82  and  _83
REMARK   38  A    between atoms: _88  and  _90
REMARK   39  A    between atoms: _90  and  _91
REMARK   40  A    between atoms: _90  and  _93
REMARK   41  A    between atoms: _93  and  _94
REMARK   42  A    between atoms: _104  and  _106
REMARK   43  A    between atoms: _106  and  _107
REMARK   44  A    between atoms: _110  and  _112
REMARK   45  A    between atoms: _112  and  _113
REMARK   46  A    between atoms: _112  and  _115
REMARK   47  A    between atoms: _115  and  _116
REMARK   48  A    between atoms: _126  and  _128
REMARK   49  A    between atoms: _128  and  _129
REMARK   50  A    between atoms: _128  and  _131
REMARK   51  A    between atoms: _131  and  _132
REMARK   52  A    between atoms: _132  and  _133
REMARK   53  A    between atoms: _138  and  _140
REMARK   54  A    between atoms: _140  and  _141
REMARK   55  A    between atoms: _140  and  _143
REMARK   56  A    between atoms: _143  and  _144
REMARK   57  A    between atoms: _144  and  _145
REMARK   58  A    between atoms: _145  and  _146
REMARK   59  A    between atoms: _146  and  _147
REMARK   60  A    between atoms: _151  and  _153
REMARK   61  A    between atoms: _153  and  _154
REMARK   62  A    between atoms: _153  and  _156
REMARK   63  A    between atoms: _156  and  _157
REMARK   64  A    between atoms: _162  and  _164
REMARK   65  A    between atoms: _164  and  _165
REMARK   66  A    between atoms: _164  and  _167
REMARK   67  A    between atoms: _167  and  _168
REMARK   68  A    between atoms: _168  and  _169
REMARK   69  A    between atoms: _174  and  _176
REMARK   70  A    between atoms: _176  and  _177
REMARK   71  A    between atoms: _176  and  _179
REMARK   72  A    between atoms: _179  and  _180
REMARK   73  A    between atoms: _183  and  _185
REMARK   74  A    between atoms: _185  and  _186
REMARK   75  A    between atoms: _185  and  _188
REMARK   76  A    between atoms: _188  and  _189
REMARK   77  A    between atoms: _189  and  _190
REMARK   78  A    between atoms: _190  and  _191
REMARK   79  A    between atoms: _200  and  _202
REMARK   80  A    between atoms: _202  and  _203
REMARK   81  A    between atoms: _202  and  _205
REMARK   82  A    between atoms: _205  and  _206
REMARK   83  A    between atoms: _216  and  _218
REMARK   84  A    between atoms: _218  and  _219
REMARK   85  A    between atoms: _218  and  _221
REMARK   86  A    between atoms: _221  and  _222
REMARK   87  A    between atoms: _227  and  _229
REMARK   88  A    between atoms: _229  and  _230
REMARK   89  A    between atoms: _229  and  _232
REMARK   90  A    between atoms: _232  and  _233
REMARK   91  A    between atoms: _238  and  _239
REMARK   92  A    between atoms: _241  and  _243
REMARK   93  A    between atoms: _243  and  _244
REMARK   94  A    between atoms: _246  and  _248
REMARK   95  A    between atoms: _248  and  _249
REMARK   96  A    between atoms: _248  and  _251
REMARK   97  A    between atoms: _251  and  _252
REMARK   98  A    between atoms: _255  and  _257
REMARK   99  A    between atoms: _257  and  _258
REMARK  100  A    between atoms: _257  and  _260
REMARK  101  A    between atoms: _260  and  _261
REMARK  102  A    between atoms: _266  and  _267
REMARK  103  A    between atoms: _269  and  _271
REMARK  104  A    between atoms: _271  and  _272
REMARK  105  A    between atoms: _271  and  _274
REMARK  106  A    between atoms: _276  and  _278
REMARK  107  A    between atoms: _278  and  _279
REMARK  108  A    between atoms: _281  and  _283
REMARK  109  A    between atoms: _283  and  _284
REMARK  110  A    between atoms: _283  and  _286
REMARK  111  A    between atoms: _286  and  _287
REMARK  112  A    between atoms: _287  and  _288
REMARK  113  A    between atoms: _288  and  _289
REMARK  114  A    between atoms: _298  and  _300
REMARK  115  A    between atoms: _300  and  _301
REMARK  116  A    between atoms: _300  and  _303
REMARK  117  A    between atoms: _306  and  _308
REMARK  118  A    between atoms: _308  and  _309
REMARK  119  A    between atoms: _308  and  _311
REMARK  120  A    between atoms: _311  and  _312
REMARK  121  A    between atoms: _317  and  _319
REMARK  122  A    between atoms: _319  and  _320
REMARK  123  A    between atoms: _322  and  _324
REMARK  124  A    between atoms: _324  and  _325
REMARK  125  A    between atoms: _324  and  _327
REMARK  126  A    between atoms: _327  and  _328
REMARK  127  A    between atoms: _338  and  _340
REMARK  128  A    between atoms: _340  and  _341
REMARK  129  A    between atoms: _340  and  _343
REMARK  130  A    between atoms: _343  and  _344
REMARK  131  A    between atoms: _346  and  _348
REMARK  132  A    between atoms: _348  and  _349
REMARK  133  A    between atoms: _348  and  _351
REMARK  134  A    between atoms: _353  and  _355
REMARK  135  A    between atoms: _355  and  _356
REMARK  136  A    between atoms: _355  and  _358
REMARK  137  A    between atoms: _358  and  _359
REMARK  138  A    between atoms: _362  and  _364
REMARK  139  A    between atoms: _364  and  _365
REMARK  140  A    between atoms: _364  and  _367
REMARK  141  A    between atoms: _367  and  _368
REMARK  142  A    between atoms: _374  and  _376
REMARK  143  A    between atoms: _376  and  _377
REMARK  144  A    between atoms: _376  and  _379
REMARK  145  A    between atoms: _379  and  _380
REMARK  146  A    between atoms: _385  and  _386
REMARK                            x       y       z     vdW  Elec       q    Type
REMARK                         _______ _______ _______ _____ _____    ______ ____
ROOT
ATOM      1  O   HOH     1      19.617  -9.408  -0.202  0.00  0.00    +0.000 OA
ENDROOT
TORSDOF 0
REMARK  Name = ../refined-set-2016/3ckb/3ckb_pocket.pdb
REMARK  146 active torsions:
REMARK  status: ('A' for Active; 'I' for Inactive)
REMARK    1  A    between atoms: _1  and  _3
REMARK    2  A    between atoms: _3  and  _4
REMARK    3  A    between atoms: _3  and  _6
REMARK    4  A    between atoms: _6  and  _7
REMARK    5  A    between atoms: _7  and  _8
REMARK    6  A    between atoms: _13  and  _15
REMARK    7  A    between atoms: _15  and  _16
REMARK    8  A    between atoms: _15  and  _18
REMARK    9  A    between atoms: _18  and  _19
REMARK   10  A    between atoms: _22  and  _24
REMARK   11  A    between atoms: _24  and  _25
REMARK   12  A    between atoms: _24  and  _27
REMARK   13  A    between atoms: _27  and  _28
REMARK   14  A    between atoms: _28  and  _29
REMARK   15  A    between atoms: _32  and  _34
REMARK   16  A    between atoms: _34  and  _35
REMARK   17  A    between atoms: _37  and  _39
REMARK   18  A    between atoms: _39  and  _40
REMARK   19  A    between atoms: _39  and  _42
REMARK   20  A    between atoms: _42  and  _43
REMARK   21  A    between atoms: _43  and  _44
REMARK   22  A    between atoms: _47  and  _49
REMARK   23  A    between atoms: _49  and  _50
REMARK   24  A    between atoms: _49  and  _52
REMARK   25  A    between atoms: _52  and  _53
REMARK   26  A    between atoms: _55  and  _57
REMARK   27  A    between atoms: _57  and  _58
REMARK   28  A    between atoms: _60  and  _62
REMARK   29  A    between atoms: _62  and  _63
REMARK   30  A    between atoms: _62  and  _65
REMARK   31  A    between atoms: _65  and  _66
REMARK   32  A    between atoms: _66  and  _67
REMARK   33  A    between atoms: _67  and  _68
REMARK   34  A    between atoms: _77  and  _79
REMARK   35  A    between atoms: _79  and  _80
REMARK   36  A    between atoms: _79  and  _82
REMARK   37  A    between atoms: _82  and  _83
REMARK   38  A    between atoms: _88  and  _90
REMARK   39  A    between atoms: _90  and  _91
REMARK   40  A    between atoms: _90  and  _93
REMARK   41  A    between atoms: _93  and  _94
REMARK   42  A    between atoms: _104  and  _106
REMARK   43  A    between atoms: _106  and  _107
REMARK   44  A    between atoms: _110  and  _112
REMARK   45  A    between atoms: _112  and  _113
REMARK   46  A    between atoms: _112  and  _115
REMARK   47  A    between atoms: _115  and  _116
REMARK   48  A    between atoms: _126  and  _128
REMARK   49  A    between atoms: _128  and  _129
REMARK   50  A    between atoms: _128  and  _131
REMARK   51  A    between atoms: _131  and  _132
REMARK   52  A    between atoms: _132  and  _133
REMARK   53  A    between atoms: _138  and  _140
REMARK   54  A    between atoms: _140  and  _141
REMARK   55  A    between atoms: _140  and  _143
REMARK   56  A    between atoms: _143  and  _144
REMARK   57  A    between atoms: _144  and  _145
REMARK   58  A    between atoms: _145  and  _146
REMARK   59  A    between atoms: _146  and  _147
REMARK   60  A    between atoms: _151  and  _153
REMARK   61  A    between atoms: _153  and  _154
REMARK   62  A    between atoms: _153  and  _156
REMARK   63  A    between atoms: _156  and  _157
REMARK   64  A    between atoms: _162  and  _164
REMARK   65  A    between atoms: _164  and  _165
REMARK   66  A    between atoms: _164  and  _167
REMARK   67  A    between atoms: _167  and  _168
REMARK   68  A    between atoms: _168  and  _169
REMARK   69  A    between atoms: _174  and  _176
REMARK   70  A    between atoms: _176  and  _177
REMARK   71  A    between atoms: _176  and  _179
REMARK   72  A    between atoms: _179  and  _180
REMARK   73  A    between atoms: _183  and  _185
REMARK   74  A    between atoms: _185  and  _186
REMARK   75  A    between atoms: _185  and  _188
REMARK   76  A    between atoms: _188  and  _189
REMARK   77  A    between atoms: _189  and  _190
REMARK   78  A    between atoms: _190  and  _191
REMARK   79  A    between atoms: _200  and  _202
REMARK   80  A    between atoms: _202  and  _203
REMARK   81  A    between atoms: _202  and  _205
REMARK   82  A    between atoms: _205  and  _206
REMARK   83  A    between atoms: _216  and  _218
REMARK   84  A    between atoms: _218  and  _219
REMARK   85  A    between atoms: _218  and  _221
REMARK   86  A    between atoms: _221  and  _222
REMARK   87  A    between atoms: _227  and  _229
REMARK   88  A    between atoms: _229  and  _230
REMARK   89  A    between atoms: _229  and  _232
REMARK   90  A    between atoms: _232  and  _233
REMARK   91  A    between atoms: _238  and  _239
REMARK   92  A    between atoms: _241  and  _243
REMARK   93  A    between atoms: _243  and  _244
REMARK   94  A    between atoms: _246  and  _248
REMARK   95  A    between atoms: _248  and  _249
REMARK   96  A    between atoms: _248  and  _251
REMARK   97  A    between atoms: _251  and  _252
REMARK   98  A    between atoms: _255  and  _257
REMARK   99  A    between atoms: _257  and  _258
REMARK  100  A    between atoms: _257  and  _260
REMARK  101  A    between atoms: _260  and  _261
REMARK  102  A    between atoms: _266  and  _267
REMARK  103  A    between atoms: _269  and  _271
REMARK  104  A    between atoms: _271  and  _272
REMARK  105  A    between atoms: _271  and  _274
REMARK  106  A    between atoms: _276  and  _278
REMARK  107  A    between atoms: _278  and  _279
REMARK  108  A    between atoms: _281  and  _283
REMARK  109  A    between atoms: _283  and  _284
REMARK  110  A    between atoms: _283  and  _286
REMARK  111  A    between atoms: _286  and  _287
REMARK  112  A    between atoms: _287  and  _288
REMARK  113  A    between atoms: _288  and  _289
REMARK  114  A    between atoms: _298  and  _300
REMARK  115  A    between atoms: _300  and  _301
REMARK  116  A    between atoms: _300  and  _303
REMARK  117  A    between atoms: _306  and  _308
REMARK  118  A    between atoms: _308  and  _309
REMARK  119  A    between atoms: _308  and  _311
REMARK  120  A    between atoms: _311  and  _312
REMARK  121  A    between atoms: _317  and  _319
REMARK  122  A    between atoms: _319  and  _320
REMARK  123  A    between atoms: _322  and  _324
REMARK  124  A    between atoms: _324  and  _325
REMARK  125  A    between atoms: _324  and  _327
REMARK  126  A    between atoms: _327  and  _328
REMARK  127  A    between atoms: _338  and  _340
REMARK  128  A    between atoms: _340  and  _341
REMARK  129  A    between atoms: _340  and  _343
REMARK  130  A    between atoms: _343  and  _344
REMARK  131  A    between atoms: _346  and  _348
REMARK  132  A    between atoms: _348  and  _349
REMARK  133  A    between atoms: _348  and  _351
REMARK  134  A    between atoms: _353  and  _355
REMARK  135  A    between atoms: _355  and  _356
REMARK  136  A    between atoms: _355  and  _358
REMARK  137  A    between atoms: _358  and  _359
REMARK  138  A    between atoms: _362  and  _364
REMARK  139  A    between atoms: _364  and  _365
REMARK  140  A    between atoms: _364  and  _367
REMARK  141  A    between atoms: _367  and  _368
REMARK  142  A    between atoms: _374  and  _376
REMARK  143  A    between atoms: _376  and  _377
REMARK  144  A    between atoms: _376  and  _379
REMARK  145  A    between atoms: _379  and  _380
REMARK  146  A    between atoms: _385  and  _386
REMARK                            x       y       z     vdW  Elec       q    Type
REMARK                         _______ _______ _______ _____ _____    ______ ____
ROOT
ATOM      1  O   HOH     1      12.252 -15.928   0.780  0.00  0.00    +0.000 OA
ENDROOT
TORSDOF 0
REMARK  Name = ../refined-set-2016/3ckb/3ckb_pocket.pdb
REMARK  146 active torsions:
REMARK  status: ('A' for Active; 'I' for Inactive)
REMARK    1  A    between atoms: _1  and  _3
REMARK    2  A    between atoms: _3  and  _4
REMARK    3  A    between atoms: _3  and  _6
REMARK    4  A    between atoms: _6  and  _7
REMARK    5  A    between atoms: _7  and  _8
REMARK    6  A    between atoms: _13  and  _15
REMARK    7  A    between atoms: _15  and  _16
REMARK    8  A    between atoms: _15  and  _18
REMARK    9  A    between atoms: _18  and  _19
REMARK   10  A    between atoms: _22  and  _24
REMARK   11  A    between atoms: _24  and  _25
REMARK   12  A    between atoms: _24  and  _27
REMARK   13  A    between atoms: _27  and  _28
REMARK   14  A    between atoms: _28  and  _29
REMARK   15  A    between atoms: _32  and  _34
REMARK   16  A    between atoms: _34  and  _35
REMARK   17  A    between atoms: _37  and  _39
REMARK   18  A    between atoms: _39  and  _40
REMARK   19  A    between atoms: _39  and  _42
REMARK   20  A    between atoms: _42  and  _43
REMARK   21  A    between atoms: _43  and  _44
REMARK   22  A    between atoms: _47  and  _49
REMARK   23  A    between atoms: _49  and  _50
REMARK   24  A    between atoms: _49  and  _52
REMARK   25  A    between atoms: _52  and  _53
REMARK   26  A    between atoms: _55  and  _57
REMARK   27  A    between atoms: _57  and  _58
REMARK   28  A    between atoms: _60  and  _62
REMARK   29  A    between atoms: _62  and  _63
REMARK   30  A    between atoms: _62  and  _65
REMARK   31  A    between atoms: _65  and  _66
REMARK   32  A    between atoms: _66  and  _67
REMARK   33  A    between atoms: _67  and  _68
REMARK   34  A    between atoms: _77  and  _79
REMARK   35  A    between atoms: _79  and  _80
REMARK   36  A    between atoms: _79  and  _82
REMARK   37  A    between atoms: _82  and  _83
REMARK   38  A    between atoms: _88  and  _90
REMARK   39  A    between atoms: _90  and  _91
REMARK   40  A    between atoms: _90  and  _93
REMARK   41  A    between atoms: _93  and  _94
REMARK   42  A    between atoms: _104  and  _106
REMARK   43  A    between atoms: _106  and  _107
REMARK   44  A    between atoms: _110  and  _112
REMARK   45  A    between atoms: _112  and  _113
REMARK   46  A    between atoms: _112  and  _115
REMARK   47  A    between atoms: _115  and  _116
REMARK   48  A    between atoms: _126  and  _128
REMARK   49  A    between atoms: _128  and  _129
REMARK   50  A    between atoms: _128  and  _131
REMARK   51  A    between atoms: _131  and  _132
REMARK   52  A    between atoms: _132  and  _133
REMARK   53  A    between atoms: _138  and  _140
REMARK   54  A    between atoms: _140  and  _141
REMARK   55  A    between atoms: _140  and  _143
REMARK   56  A    between atoms: _143  and  _144
REMARK   57  A    between atoms: _144  and  _145
REMARK   58  A    between atoms: _145  and  _146
REMARK   59  A    between atoms: _146  and  _147
REMARK   60  A    between atoms: _151  and  _153
REMARK   61  A    between atoms: _153  and  _154
REMARK   62  A    between atoms: _153  and  _156
REMARK   63  A    between atoms: _156  and  _157
REMARK   64  A    between atoms: _162  and  _164
REMARK   65  A    between atoms: _164  and  _165
REMARK   66  A    between atoms: _164  and  _167
REMARK   67  A    between atoms: _167  and  _168
REMARK   68  A    between atoms: _168  and  _169
REMARK   69  A    between atoms: _174  and  _176
REMARK   70  A    between atoms: _176  and  _177
REMARK   71  A    between atoms: _176  and  _179
REMARK   72  A    between atoms: _179  and  _180
REMARK   73  A    between atoms: _183  and  _185
REMARK   74  A    between atoms: _185  and  _186
REMARK   75  A    between atoms: _185  and  _188
REMARK   76  A    between atoms: _188  and  _189
REMARK   77  A    between atoms: _189  and  _190
REMARK   78  A    between atoms: _190  and  _191
REMARK   79  A    between atoms: _200  and  _202
REMARK   80  A    between atoms: _202  and  _203
REMARK   81  A    between atoms: _202  and  _205
REMARK   82  A    between atoms: _205  and  _206
REMARK   83  A    between atoms: _216  and  _218
REMARK   84  A    between atoms: _218  and  _219
REMARK   85  A    between atoms: _218  and  _221
REMARK   86  A    between atoms: _221  and  _222
REMARK   87  A    between atoms: _227  and  _229
REMARK   88  A    between atoms: _229  and  _230
REMARK   89  A    between atoms: _229  and  _232
REMARK   90  A    between atoms: _232  and  _233
REMARK   91  A    between atoms: _238  and  _239
REMARK   92  A    between atoms: _241  and  _243
REMARK   93  A    between atoms: _243  and  _244
REMARK   94  A    between atoms: _246  and  _248
REMARK   95  A    between atoms: _248  and  _249
REMARK   96  A    between atoms: _248  and  _251
REMARK   97  A    between atoms: _251  and  _252
REMARK   98  A    between atoms: _255  and  _257
REMARK   99  A    between atoms: _257  and  _258
REMARK  100  A    between atoms: _257  and  _260
REMARK  101  A    between atoms: _260  and  _261
REMARK  102  A    between atoms: _266  and  _267
REMARK  103  A    between atoms: _269  and  _271
REMARK  104  A    between atoms: _271  and  _272
REMARK  105  A    between atoms: _271  and  _274
REMARK  106  A    between atoms: _276  and  _278
REMARK  107  A    between atoms: _278  and  _279
REMARK  108  A    between atoms: _281  and  _283
REMARK  109  A    between atoms: _283  and  _284
REMARK  110  A    between atoms: _283  and  _286
REMARK  111  A    between atoms: _286  and  _287
REMARK  112  A    between atoms: _287  and  _288
REMARK  113  A    between atoms: _288  and  _289
REMARK  114  A    between atoms: _298  and  _300
REMARK  115  A    between atoms: _300  and  _301
REMARK  116  A    between atoms: _300  and  _303
REMARK  117  A    between atoms: _306  and  _308
REMARK  118  A    between atoms: _308  and  _309
REMARK  119  A    between atoms: _308  and  _311
REMARK  120  A    between atoms: _311  and  _312
REMARK  121  A    between atoms: _317  and  _319
REMARK  122  A    between atoms: _319  and  _320
REMARK  123  A    between atoms: _322  and  _324
REMARK  124  A    between atoms: _324  and  _325
REMARK  125  A    between atoms: _324  and  _327
REMARK  126  A    between atoms: _327  and  _328
REMARK  127  A    between atoms: _338  and  _340
REMARK  128  A    between atoms: _340  and  _341
REMARK  129  A    between atoms: _340  and  _343
REMARK  130  A    between atoms: _343  and  _344
REMARK  131  A    between atoms: _346  and  _348
REMARK  132  A    between atoms: _348  and  _349
REMARK  133  A    between atoms: _348  and  _351
REMARK  134  A    between atoms: _353  and  _355
REMARK  135  A    between atoms: _355  and  _356
REMARK  136  A    between atoms: _355  and  _358
REMARK  137  A    between atoms: _358  and  _359
REMARK  138  A    between atoms: _362  and  _364
REMARK  139  A    between atoms: _364  and  _365
REMARK  140  A    between atoms: _364  and  _367
REMARK  141  A    between atoms: _367  and  _368
REMARK  142  A    between atoms: _374  and  _376
REMARK  143  A    between atoms: _376  and  _377
REMARK  144  A    between atoms: _376  and  _379
REMARK  145  A    between atoms: _379  and  _380
REMARK  146  A    between atoms: _385  and  _386
REMARK                            x       y       z     vdW  Elec       q    Type
REMARK                         _______ _______ _______ _____ _____    ______ ____
ROOT
ATOM      1  O   HOH     1      10.348 -20.318  -2.552  0.00  0.00    +0.000 OA
ENDROOT
TORSDOF 0
REMARK  Name = ../refined-set-2016/3ckb/3ckb_pocket.pdb
REMARK  146 active torsions:
REMARK  status: ('A' for Active; 'I' for Inactive)
REMARK    1  A    between atoms: _1  and  _3
REMARK    2  A    between atoms: _3  and  _4
REMARK    3  A    between atoms: _3  and  _6
REMARK    4  A    between atoms: _6  and  _7
REMARK    5  A    between atoms: _7  and  _8
REMARK    6  A    between atoms: _13  and  _15
REMARK    7  A    between atoms: _15  and  _16
REMARK    8  A    between atoms: _15  and  _18
REMARK    9  A    between atoms: _18  and  _19
REMARK   10  A    between atoms: _22  and  _24
REMARK   11  A    between atoms: _24  and  _25
REMARK   12  A    between atoms: _24  and  _27
REMARK   13  A    between atoms: _27  and  _28
REMARK   14  A    between atoms: _28  and  _29
REMARK   15  A    between atoms: _32  and  _34
REMARK   16  A    between atoms: _34  and  _35
REMARK   17  A    between atoms: _37  and  _39
REMARK   18  A    between atoms: _39  and  _40
REMARK   19  A    between atoms: _39  and  _42
REMARK   20  A    between atoms: _42  and  _43
REMARK   21  A    between atoms: _43  and  _44
REMARK   22  A    between atoms: _47  and  _49
REMARK   23  A    between atoms: _49  and  _50
REMARK   24  A    between atoms: _49  and  _52
REMARK   25  A    between atoms: _52  and  _53
REMARK   26  A    between atoms: _55  and  _57
REMARK   27  A    between atoms: _57  and  _58
REMARK   28  A    between atoms: _60  and  _62
REMARK   29  A    between atoms: _62  and  _63
REMARK   30  A    between atoms: _62  and  _65
REMARK   31  A    between atoms: _65  and  _66
REMARK   32  A    between atoms: _66  and  _67
REMARK   33  A    between atoms: _67  and  _68
REMARK   34  A    between atoms: _77  and  _79
REMARK   35  A    between atoms: _79  and  _80
REMARK   36  A    between atoms: _79  and  _82
REMARK   37  A    between atoms: _82  and  _83
REMARK   38  A    between atoms: _88  and  _90
REMARK   39  A    between atoms: _90  and  _91
REMARK   40  A    between atoms: _90  and  _93
REMARK   41  A    between atoms: _93  and  _94
REMARK   42  A    between atoms: _104  and  _106
REMARK   43  A    between atoms: _106  and  _107
REMARK   44  A    between atoms: _110  and  _112
REMARK   45  A    between atoms: _112  and  _113
REMARK   46  A    between atoms: _112  and  _115
REMARK   47  A    between atoms: _115  and  _116
REMARK   48  A    between atoms: _126  and  _128
REMARK   49  A    between atoms: _128  and  _129
REMARK   50  A    between atoms: _128  and  _131
REMARK   51  A    between atoms: _131  and  _132
REMARK   52  A    between atoms: _132  and  _133
REMARK   53  A    between atoms: _138  and  _140
REMARK   54  A    between atoms: _140  and  _141
REMARK   55  A    between atoms: _140  and  _143
REMARK   56  A    between atoms: _143  and  _144
REMARK   57  A    between atoms: _144  and  _145
REMARK   58  A    between atoms: _145  and  _146
REMARK   59  A    between atoms: _146  and  _147
REMARK   60  A    between atoms: _151  and  _153
REMARK   61  A    between atoms: _153  and  _154
REMARK   62  A    between atoms: _153  and  _156
REMARK   63  A    between atoms: _156  and  _157
REMARK   64  A    between atoms: _162  and  _164
REMARK   65  A    between atoms: _164  and  _165
REMARK   66  A    between atoms: _164  and  _167
REMARK   67  A    between atoms: _167  and  _168
REMARK   68  A    between atoms: _168  and  _169
REMARK   69  A    between atoms: _174  and  _176
REMARK   70  A    between atoms: _176  and  _177
REMARK   71  A    between atoms: _176  and  _179
REMARK   72  A    between atoms: _179  and  _180
REMARK   73  A    between atoms: _183  and  _185
REMARK   74  A    between atoms: _185  and  _186
REMARK   75  A    between atoms: _185  and  _188
REMARK   76  A    between atoms: _188  and  _189
REMARK   77  A    between atoms: _189  and  _190
REMARK   78  A    between atoms: _190  and  _191
REMARK   79  A    between atoms: _200  and  _202
REMARK   80  A    between atoms: _202  and  _203
REMARK   81  A    between atoms: _202  and  _205
REMARK   82  A    between atoms: _205  and  _206
REMARK   83  A    between atoms: _216  and  _218
REMARK   84  A    between atoms: _218  and  _219
REMARK   85  A    between atoms: _218  and  _221
REMARK   86  A    between atoms: _221  and  _222
REMARK   87  A    between atoms: _227  and  _229
REMARK   88  A    between atoms: _229  and  _230
REMARK   89  A    between atoms: _229  and  _232
REMARK   90  A    between atoms: _232  and  _233
REMARK   91  A    between atoms: _238  and  _239
REMARK   92  A    between atoms: _241  and  _243
REMARK   93  A    between atoms: _243  and  _244
REMARK   94  A    between atoms: _246  and  _248
REMARK   95  A    between atoms: _248  and  _249
REMARK   96  A    between atoms: _248  and  _251
REMARK   97  A    between atoms: _251  and  _252
REMARK   98  A    between atoms: _255  and  _257
REMARK   99  A    between atoms: _257  and  _258
REMARK  100  A    between atoms: _257  and  _260
REMARK  101  A    between atoms: _260  and  _261
REMARK  102  A    between atoms: _266  and  _267
REMARK  103  A    between atoms: _269  and  _271
REMARK  104  A    between atoms: _271  and  _272
REMARK  105  A    between atoms: _271  and  _274
REMARK  106  A    between atoms: _276  and  _278
REMARK  107  A    between atoms: _278  and  _279
REMARK  108  A    between atoms: _281  and  _283
REMARK  109  A    between atoms: _283  and  _284
REMARK  110  A    between atoms: _283  and  _286
REMARK  111  A    between atoms: _286  and  _287
REMARK  112  A    between atoms: _287  and  _288
REMARK  113  A    between atoms: _288  and  _289
REMARK  114  A    between atoms: _298  and  _300
REMARK  115  A    between atoms: _300  and  _301
REMARK  116  A    between atoms: _300  and  _303
REMARK  117  A    between atoms: _306  and  _308
REMARK  118  A    between atoms: _308  and  _309
REMARK  119  A    between atoms: _308  and  _311
REMARK  120  A    between atoms: _311  and  _312
REMARK  121  A    between atoms: _317  and  _319
REMARK  122  A    between atoms: _319  and  _320
REMARK  123  A    between atoms: _322  and  _324
REMARK  124  A    between atoms: _324  and  _325
REMARK  125  A    between atoms: _324  and  _327
REMARK  126  A    between atoms: _327  and  _328
REMARK  127  A    between atoms: _338  and  _340
REMARK  128  A    between atoms: _340  and  _341
REMARK  129  A    between atoms: _340  and  _343
REMARK  130  A    between atoms: _343  and  _344
REMARK  131  A    between atoms: _346  and  _348
REMARK  132  A    between atoms: _348  and  _349
REMARK  133  A    between atoms: _348  and  _351
REMARK  134  A    between atoms: _353  and  _355
REMARK  135  A    between atoms: _355  and  _356
REMARK  136  A    between atoms: _355  and  _358
REMARK  137  A    between atoms: _358  and  _359
REMARK  138  A    between atoms: _362  and  _364
REMARK  139  A    between atoms: _364  and  _365
REMARK  140  A    between atoms: _364  and  _367
REMARK  141  A    between atoms: _367  and  _368
REMARK  142  A    between atoms: _374  and  _376
REMARK  143  A    between atoms: _376  and  _377
REMARK  144  A    between atoms: _376  and  _379
REMARK  145  A    between atoms: _379  and  _380
REMARK  146  A    between atoms: _385  and  _386
REMARK                            x       y       z     vdW  Elec       q    Type
REMARK                         _______ _______ _______ _____ _____    ______ ____
ROOT
ATOM      1  O   HOH     1       9.286 -21.548 -11.390  0.00  0.00    +0.000 OA
ENDROOT
TORSDOF 0
REMARK  Name = ../refined-set-2016/3ckb/3ckb_pocket.pdb
REMARK  146 active torsions:
REMARK  status: ('A' for Active; 'I' for Inactive)
REMARK    1  A    between atoms: _1  and  _3
REMARK    2  A    between atoms: _3  and  _4
REMARK    3  A    between atoms: _3  and  _6
REMARK    4  A    between atoms: _6  and  _7
REMARK    5  A    between atoms: _7  and  _8
REMARK    6  A    between atoms: _13  and  _15
REMARK    7  A    between atoms: _15  and  _16
REMARK    8  A    between atoms: _15  and  _18
REMARK    9  A    between atoms: _18  and  _19
REMARK   10  A    between atoms: _22  and  _24
REMARK   11  A    between atoms: _24  and  _25
REMARK   12  A    between atoms: _24  and  _27
REMARK   13  A    between atoms: _27  and  _28
REMARK   14  A    between atoms: _28  and  _29
REMARK   15  A    between atoms: _32  and  _34
REMARK   16  A    between atoms: _34  and  _35
REMARK   17  A    between atoms: _37  and  _39
REMARK   18  A    between atoms: _39  and  _40
REMARK   19  A    between atoms: _39  and  _42
REMARK   20  A    between atoms: _42  and  _43
REMARK   21  A    between atoms: _43  and  _44
REMARK   22  A    between atoms: _47  and  _49
REMARK   23  A    between atoms: _49  and  _50
REMARK   24  A    between atoms: _49  and  _52
REMARK   25  A    between atoms: _52  and  _53
REMARK   26  A    between atoms: _55  and  _57
REMARK   27  A    between atoms: _57  and  _58
REMARK   28  A    between atoms: _60  and  _62
REMARK   29  A    between atoms: _62  and  _63
REMARK   30  A    between atoms: _62  and  _65
REMARK   31  A    between atoms: _65  and  _66
REMARK   32  A    between atoms: _66  and  _67
REMARK   33  A    between atoms: _67  and  _68
REMARK   34  A    between atoms: _77  and  _79
REMARK   35  A    between atoms: _79  and  _80
REMARK   36  A    between atoms: _79  and  _82
REMARK   37  A    between atoms: _82  and  _83
REMARK   38  A    between atoms: _88  and  _90
REMARK   39  A    between atoms: _90  and  _91
REMARK   40  A    between atoms: _90  and  _93
REMARK   41  A    between atoms: _93  and  _94
REMARK   42  A    between atoms: _104  and  _106
REMARK   43  A    between atoms: _106  and  _107
REMARK   44  A    between atoms: _110  and  _112
REMARK   45  A    between atoms: _112  and  _113
REMARK   46  A    between atoms: _112  and  _115
REMARK   47  A    between atoms: _115  and  _116
REMARK   48  A    between atoms: _126  and  _128
REMARK   49  A    between atoms: _128  and  _129
REMARK   50  A    between atoms: _128  and  _131
REMARK   51  A    between atoms: _131  and  _132
REMARK   52  A    between atoms: _132  and  _133
REMARK   53  A    between atoms: _138  and  _140
REMARK   54  A    between atoms: _140  and  _141
REMARK   55  A    between atoms: _140  and  _143
REMARK   56  A    between atoms: _143  and  _144
REMARK   57  A    between atoms: _144  and  _145
REMARK   58  A    between atoms: _145  and  _146
REMARK   59  A    between atoms: _146  and  _147
REMARK   60  A    between atoms: _151  and  _153
REMARK   61  A    between atoms: _153  and  _154
REMARK   62  A    between atoms: _153  and  _156
REMARK   63  A    between atoms: _156  and  _157
REMARK   64  A    between atoms: _162  and  _164
REMARK   65  A    between atoms: _164  and  _165
REMARK   66  A    between atoms: _164  and  _167
REMARK   67  A    between atoms: _167  and  _168
REMARK   68  A    between atoms: _168  and  _169
REMARK   69  A    between atoms: _174  and  _176
REMARK   70  A    between atoms: _176  and  _177
REMARK   71  A    between atoms: _176  and  _179
REMARK   72  A    between atoms: _179  and  _180
REMARK   73  A    between atoms: _183  and  _185
REMARK   74  A    between atoms: _185  and  _186
REMARK   75  A    between atoms: _185  and  _188
REMARK   76  A    between atoms: _188  and  _189
REMARK   77  A    between atoms: _189  and  _190
REMARK   78  A    between atoms: _190  and  _191
REMARK   79  A    between atoms: _200  and  _202
REMARK   80  A    between atoms: _202  and  _203
REMARK   81  A    between atoms: _202  and  _205
REMARK   82  A    between atoms: _205  and  _206
REMARK   83  A    between atoms: _216  and  _218
REMARK   84  A    between atoms: _218  and  _219
REMARK   85  A    between atoms: _218  and  _221
REMARK   86  A    between atoms: _221  and  _222
REMARK   87  A    between atoms: _227  and  _229
REMARK   88  A    between atoms: _229  and  _230
REMARK   89  A    between atoms: _229  and  _232
REMARK   90  A    between atoms: _232  and  _233
REMARK   91  A    between atoms: _238  and  _239
REMARK   92  A    between atoms: _241  and  _243
REMARK   93  A    between atoms: _243  and  _244
REMARK   94  A    between atoms: _246  and  _248
REMARK   95  A    between atoms: _248  and  _249
REMARK   96  A    between atoms: _248  and  _251
REMARK   97  A    between atoms: _251  and  _252
REMARK   98  A    between atoms: _255  and  _257
REMARK   99  A    between atoms: _257  and  _258
REMARK  100  A    between atoms: _257  and  _260
REMARK  101  A    between atoms: _260  and  _261
REMARK  102  A    between atoms: _266  and  _267
REMARK  103  A    between atoms: _269  and  _271
REMARK  104  A    between atoms: _271  and  _272
REMARK  105  A    between atoms: _271  and  _274
REMARK  106  A    between atoms: _276  and  _278
REMARK  107  A    between atoms: _278  and  _279
REMARK  108  A    between atoms: _281  and  _283
REMARK  109  A    between atoms: _283  and  _284
REMARK  110  A    between atoms: _283  and  _286
REMARK  111  A    between atoms: _286  and  _287
REMARK  112  A    between atoms: _287  and  _288
REMARK  113  A    between atoms: _288  and  _289
REMARK  114  A    between atoms: _298  and  _300
REMARK  115  A    between atoms: _300  and  _301
REMARK  116  A    between atoms: _300  and  _303
REMARK  117  A    between atoms: _306  and  _308
REMARK  118  A    between atoms: _308  and  _309
REMARK  119  A    between atoms: _308  and  _311
REMARK  120  A    between atoms: _311  and  _312
REMARK  121  A    between atoms: _317  and  _319
REMARK  122  A    between atoms: _319  and  _320
REMARK  123  A    between atoms: _322  and  _324
REMARK  124  A    between atoms: _324  and  _325
REMARK  125  A    between atoms: _324  and  _327
REMARK  126  A    between atoms: _327  and  _328
REMARK  127  A    between atoms: _338  and  _340
REMARK  128  A    between atoms: _340  and  _341
REMARK  129  A    between atoms: _340  and  _343
REMARK  130  A    between atoms: _343  and  _344
REMARK  131  A    between atoms: _346  and  _348
REMARK  132  A    between atoms: _348  and  _349
REMARK  133  A    between atoms: _348  and  _351
REMARK  134  A    between atoms: _353  and  _355
REMARK  135  A    between atoms: _355  and  _356
REMARK  136  A    between atoms: _355  and  _358
REMARK  137  A    between atoms: _358  and  _359
REMARK  138  A    between atoms: _362  and  _364
REMARK  139  A    between atoms: _364  and  _365
REMARK  140  A    between atoms: _364  and  _367
REMARK  141  A    between atoms: _367  and  _368
REMARK  142  A    between atoms: _374  and  _376
REMARK  143  A    between atoms: _376  and  _377
REMARK  144  A    between atoms: _376  and  _379
REMARK  145  A    between atoms: _379  and  _380
REMARK  146  A    between atoms: _385  and  _386
REMARK                            x       y       z     vdW  Elec       q    Type
REMARK                         _______ _______ _______ _____ _____    ______ ____
ROOT
ATOM      1  O   HOH     1      10.879 -19.802  -7.483  0.00  0.00    +0.000 OA
ENDROOT
TORSDOF 0
REMARK  Name = ../refined-set-2016/3ckb/3ckb_pocket.pdb
REMARK  146 active torsions:
REMARK  status: ('A' for Active; 'I' for Inactive)
REMARK    1  A    between atoms: _1  and  _3
REMARK    2  A    between atoms: _3  and  _4
REMARK    3  A    between atoms: _3  and  _6
REMARK    4  A    between atoms: _6  and  _7
REMARK    5  A    between atoms: _7  and  _8
REMARK    6  A    between atoms: _13  and  _15
REMARK    7  A    between atoms: _15  and  _16
REMARK    8  A    between atoms: _15  and  _18
REMARK    9  A    between atoms: _18  and  _19
REMARK   10  A    between atoms: _22  and  _24
REMARK   11  A    between atoms: _24  and  _25
REMARK   12  A    between atoms: _24  and  _27
REMARK   13  A    between atoms: _27  and  _28
REMARK   14  A    between atoms: _28  and  _29
REMARK   15  A    between atoms: _32  and  _34
REMARK   16  A    between atoms: _34  and  _35
REMARK   17  A    between atoms: _37  and  _39
REMARK   18  A    between atoms: _39  and  _40
REMARK   19  A    between atoms: _39  and  _42
REMARK   20  A    between atoms: _42  and  _43
REMARK   21  A    between atoms: _43  and  _44
REMARK   22  A    between atoms: _47  and  _49
REMARK   23  A    between atoms: _49  and  _50
REMARK   24  A    between atoms: _49  and  _52
REMARK   25  A    between atoms: _52  and  _53
REMARK   26  A    between atoms: _55  and  _57
REMARK   27  A    between atoms: _57  and  _58
REMARK   28  A    between atoms: _60  and  _62
REMARK   29  A    between atoms: _62  and  _63
REMARK   30  A    between atoms: _62  and  _65
REMARK   31  A    between atoms: _65  and  _66
REMARK   32  A    between atoms: _66  and  _67
REMARK   33  A    between atoms: _67  and  _68
REMARK   34  A    between atoms: _77  and  _79
REMARK   35  A    between atoms: _79  and  _80
REMARK   36  A    between atoms: _79  and  _82
REMARK   37  A    between atoms: _82  and  _83
REMARK   38  A    between atoms: _88  and  _90
REMARK   39  A    between atoms: _90  and  _91
REMARK   40  A    between atoms: _90  and  _93
REMARK   41  A    between atoms: _93  and  _94
REMARK   42  A    between atoms: _104  and  _106
REMARK   43  A    between atoms: _106  and  _107
REMARK   44  A    between atoms: _110  and  _112
REMARK   45  A    between atoms: _112  and  _113
REMARK   46  A    between atoms: _112  and  _115
REMARK   47  A    between atoms: _115  and  _116
REMARK   48  A    between atoms: _126  and  _128
REMARK   49  A    between atoms: _128  and  _129
REMARK   50  A    between atoms: _128  and  _131
REMARK   51  A    between atoms: _131  and  _132
REMARK   52  A    between atoms: _132  and  _133
REMARK   53  A    between atoms: _138  and  _140
REMARK   54  A    between atoms: _140  and  _141
REMARK   55  A    between atoms: _140  and  _143
REMARK   56  A    between atoms: _143  and  _144
REMARK   57  A    between atoms: _144  and  _145
REMARK   58  A    between atoms: _145  and  _146
REMARK   59  A    between atoms: _146  and  _147
REMARK   60  A    between atoms: _151  and  _153
REMARK   61  A    between atoms: _153  and  _154
REMARK   62  A    between atoms: _153  and  _156
REMARK   63  A    between atoms: _156  and  _157
REMARK   64  A    between atoms: _162  and  _164
REMARK   65  A    between atoms: _164  and  _165
REMARK   66  A    between atoms: _164  and  _167
REMARK   67  A    between atoms: _167  and  _168
REMARK   68  A    between atoms: _168  and  _169
REMARK   69  A    between atoms: _174  and  _176
REMARK   70  A    between atoms: _176  and  _177
REMARK   71  A    between atoms: _176  and  _179
REMARK   72  A    between atoms: _179  and  _180
REMARK   73  A    between atoms: _183  and  _185
REMARK   74  A    between atoms: _185  and  _186
REMARK   75  A    between atoms: _185  and  _188
REMARK   76  A    between atoms: _188  and  _189
REMARK   77  A    between atoms: _189  and  _190
REMARK   78  A    between atoms: _190  and  _191
REMARK   79  A    between atoms: _200  and  _202
REMARK   80  A    between atoms: _202  and  _203
REMARK   81  A    between atoms: _202  and  _205
REMARK   82  A    between atoms: _205  and  _206
REMARK   83  A    between atoms: _216  and  _218
REMARK   84  A    between atoms: _218  and  _219
REMARK   85  A    between atoms: _218  and  _221
REMARK   86  A    between atoms: _221  and  _222
REMARK   87  A    between atoms: _227  and  _229
REMARK   88  A    between atoms: _229  and  _230
REMARK   89  A    between atoms: _229  and  _232
REMARK   90  A    between atoms: _232  and  _233
REMARK   91  A    between atoms: _238  and  _239
REMARK   92  A    between atoms: _241  and  _243
REMARK   93  A    between atoms: _243  and  _244
REMARK   94  A    between atoms: _246  and  _248
REMARK   95  A    between atoms: _248  and  _249
REMARK   96  A    between atoms: _248  and  _251
REMARK   97  A    between atoms: _251  and  _252
REMARK   98  A    between atoms: _255  and  _257
REMARK   99  A    between atoms: _257  and  _258
REMARK  100  A    between atoms: _257  and  _260
REMARK  101  A    between atoms: _260  and  _261
REMARK  102  A    between atoms: _266  and  _267
REMARK  103  A    between atoms: _269  and  _271
REMARK  104  A    between atoms: _271  and  _272
REMARK  105  A    between atoms: _271  and  _274
REMARK  106  A    between atoms: _276  and  _278
REMARK  107  A    between atoms: _278  and  _279
REMARK  108  A    between atoms: _281  and  _283
REMARK  109  A    between atoms: _283  and  _284
REMARK  110  A    between atoms: _283  and  _286
REMARK  111  A    between atoms: _286  and  _287
REMARK  112  A    between atoms: _287  and  _288
REMARK  113  A    between atoms: _288  and  _289
REMARK  114  A    between atoms: _298  and  _300
REMARK  115  A    between atoms: _300  and  _301
REMARK  116  A    between atoms: _300  and  _303
REMARK  117  A    between atoms: _306  and  _308
REMARK  118  A    between atoms: _308  and  _309
REMARK  119  A    between atoms: _308  and  _311
REMARK  120  A    between atoms: _311  and  _312
REMARK  121  A    between atoms: _317  and  _319
REMARK  122  A    between atoms: _319  and  _320
REMARK  123  A    between atoms: _322  and  _324
REMARK  124  A    between atoms: _324  and  _325
REMARK  125  A    between atoms: _324  and  _327
REMARK  126  A    between atoms: _327  and  _328
REMARK  127  A    between atoms: _338  and  _340
REMARK  128  A    between atoms: _340  and  _341
REMARK  129  A    between atoms: _340  and  _343
REMARK  130  A    between atoms: _343  and  _344
REMARK  131  A    between atoms: _346  and  _348
REMARK  132  A    between atoms: _348  and  _349
REMARK  133  A    between atoms: _348  and  _351
REMARK  134  A    between atoms: _353  and  _355
REMARK  135  A    between atoms: _355  and  _356
REMARK  136  A    between atoms: _355  and  _358
REMARK  137  A    between atoms: _358  and  _359
REMARK  138  A    between atoms: _362  and  _364
REMARK  139  A    between atoms: _364  and  _365
REMARK  140  A    between atoms: _364  and  _367
REMARK  141  A    between atoms: _367  and  _368
REMARK  142  A    between atoms: _374  and  _376
REMARK  143  A    between atoms: _376  and  _377
REMARK  144  A    between atoms: _376  and  _379
REMARK  145  A    between atoms: _379  and  _380
REMARK  146  A    between atoms: _385  and  _386
REMARK                            x       y       z     vdW  Elec       q    Type
REMARK                         _______ _______ _______ _____ _____    ______ ____
ROOT
ATOM      1  O   HOH     1      16.081 -25.198  -9.652  0.00  0.00    +0.000 OA
ENDROOT
TORSDOF 0
REMARK  Name = ../refined-set-2016/3ckb/3ckb_pocket.pdb
REMARK  146 active torsions:
REMARK  status: ('A' for Active; 'I' for Inactive)
REMARK    1  A    between atoms: _1  and  _3
REMARK    2  A    between atoms: _3  and  _4
REMARK    3  A    between atoms: _3  and  _6
REMARK    4  A    between atoms: _6  and  _7
REMARK    5  A    between atoms: _7  and  _8
REMARK    6  A    between atoms: _13  and  _15
REMARK    7  A    between atoms: _15  and  _16
REMARK    8  A    between atoms: _15  and  _18
REMARK    9  A    between atoms: _18  and  _19
REMARK   10  A    between atoms: _22  and  _24
REMARK   11  A    between atoms: _24  and  _25
REMARK   12  A    between atoms: _24  and  _27
REMARK   13  A    between atoms: _27  and  _28
REMARK   14  A    between atoms: _28  and  _29
REMARK   15  A    between atoms: _32  and  _34
REMARK   16  A    between atoms: _34  and  _35
REMARK   17  A    between atoms: _37  and  _39
REMARK   18  A    between atoms: _39  and  _40
REMARK   19  A    between atoms: _39  and  _42
REMARK   20  A    between atoms: _42  and  _43
REMARK   21  A    between atoms: _43  and  _44
REMARK   22  A    between atoms: _47  and  _49
REMARK   23  A    between atoms: _49  and  _50
REMARK   24  A    between atoms: _49  and  _52
REMARK   25  A    between atoms: _52  and  _53
REMARK   26  A    between atoms: _55  and  _57
REMARK   27  A    between atoms: _57  and  _58
REMARK   28  A    between atoms: _60  and  _62
REMARK   29  A    between atoms: _62  and  _63
REMARK   30  A    between atoms: _62  and  _65
REMARK   31  A    between atoms: _65  and  _66
REMARK   32  A    between atoms: _66  and  _67
REMARK   33  A    between atoms: _67  and  _68
REMARK   34  A    between atoms: _77  and  _79
REMARK   35  A    between atoms: _79  and  _80
REMARK   36  A    between atoms: _79  and  _82
REMARK   37  A    between atoms: _82  and  _83
REMARK   38  A    between atoms: _88  and  _90
REMARK   39  A    between atoms: _90  and  _91
REMARK   40  A    between atoms: _90  and  _93
REMARK   41  A    between atoms: _93  and  _94
REMARK   42  A    between atoms: _104  and  _106
REMARK   43  A    between atoms: _106  and  _107
REMARK   44  A    between atoms: _110  and  _112
REMARK   45  A    between atoms: _112  and  _113
REMARK   46  A    between atoms: _112  and  _115
REMARK   47  A    between atoms: _115  and  _116
REMARK   48  A    between atoms: _126  and  _128
REMARK   49  A    between atoms: _128  and  _129
REMARK   50  A    between atoms: _128  and  _131
REMARK   51  A    between atoms: _131  and  _132
REMARK   52  A    between atoms: _132  and  _133
REMARK   53  A    between atoms: _138  and  _140
REMARK   54  A    between atoms: _140  and  _141
REMARK   55  A    between atoms: _140  and  _143
REMARK   56  A    between atoms: _143  and  _144
REMARK   57  A    between atoms: _144  and  _145
REMARK   58  A    between atoms: _145  and  _146
REMARK   59  A    between atoms: _146  and  _147
REMARK   60  A    between atoms: _151  and  _153
REMARK   61  A    between atoms: _153  and  _154
REMARK   62  A    between atoms: _153  and  _156
REMARK   63  A    between atoms: _156  and  _157
REMARK   64  A    between atoms: _162  and  _164
REMARK   65  A    between atoms: _164  and  _165
REMARK   66  A    between atoms: _164  and  _167
REMARK   67  A    between atoms: _167  and  _168
REMARK   68  A    between atoms: _168  and  _169
REMARK   69  A    between atoms: _174  and  _176
REMARK   70  A    between atoms: _176  and  _177
REMARK   71  A    between atoms: _176  and  _179
REMARK   72  A    between atoms: _179  and  _180
REMARK   73  A    between atoms: _183  and  _185
REMARK   74  A    between atoms: _185  and  _186
REMARK   75  A    between atoms: _185  and  _188
REMARK   76  A    between atoms: _188  and  _189
REMARK   77  A    between atoms: _189  and  _190
REMARK   78  A    between atoms: _190  and  _191
REMARK   79  A    between atoms: _200  and  _202
REMARK   80  A    between atoms: _202  and  _203
REMARK   81  A    between atoms: _202  and  _205
REMARK   82  A    between atoms: _205  and  _206
REMARK   83  A    between atoms: _216  and  _218
REMARK   84  A    between atoms: _218  and  _219
REMARK   85  A    between atoms: _218  and  _221
REMARK   86  A    between atoms: _221  and  _222
REMARK   87  A    between atoms: _227  and  _229
REMARK   88  A    between atoms: _229  and  _230
REMARK   89  A    between atoms: _229  and  _232
REMARK   90  A    between atoms: _232  and  _233
REMARK   91  A    between atoms: _238  and  _239
REMARK   92  A    between atoms: _241  and  _243
REMARK   93  A    between atoms: _243  and  _244
REMARK   94  A    between atoms: _246  and  _248
REMARK   95  A    between atoms: _248  and  _249
REMARK   96  A    between atoms: _248  and  _251
REMARK   97  A    between atoms: _251  and  _252
REMARK   98  A    between atoms: _255  and  _257
REMARK   99  A    between atoms: _257  and  _258
REMARK  100  A    between atoms: _257  and  _260
REMARK  101  A    between atoms: _260  and  _261
REMARK  102  A    between atoms: _266  and  _267
REMARK  103  A    between atoms: _269  and  _271
REMARK  104  A    between atoms: _271  and  _272
REMARK  105  A    between atoms: _271  and  _274
REMARK  106  A    between atoms: _276  and  _278
REMARK  107  A    between atoms: _278  and  _279
REMARK  108  A    between atoms: _281  and  _283
REMARK  109  A    between atoms: _283  and  _284
REMARK  110  A    between atoms: _283  and  _286
REMARK  111  A    between atoms: _286  and  _287
REMARK  112  A    between atoms: _287  and  _288
REMARK  113  A    between atoms: _288  and  _289
REMARK  114  A    between atoms: _298  and  _300
REMARK  115  A    between atoms: _300  and  _301
REMARK  116  A    between atoms: _300  and  _303
REMARK  117  A    between atoms: _306  and  _308
REMARK  118  A    between atoms: _308  and  _309
REMARK  119  A    between atoms: _308  and  _311
REMARK  120  A    between atoms: _311  and  _312
REMARK  121  A    between atoms: _317  and  _319
REMARK  122  A    between atoms: _319  and  _320
REMARK  123  A    between atoms: _322  and  _324
REMARK  124  A    between atoms: _324  and  _325
REMARK  125  A    between atoms: _324  and  _327
REMARK  126  A    between atoms: _327  and  _328
REMARK  127  A    between atoms: _338  and  _340
REMARK  128  A    between atoms: _340  and  _341
REMARK  129  A    between atoms: _340  and  _343
REMARK  130  A    between atoms: _343  and  _344
REMARK  131  A    between atoms: _346  and  _348
REMARK  132  A    between atoms: _348  and  _349
REMARK  133  A    between atoms: _348  and  _351
REMARK  134  A    between atoms: _353  and  _355
REMARK  135  A    between atoms: _355  and  _356
REMARK  136  A    between atoms: _355  and  _358
REMARK  137  A    between atoms: _358  and  _359
REMARK  138  A    between atoms: _362  and  _364
REMARK  139  A    between atoms: _364  and  _365
REMARK  140  A    between atoms: _364  and  _367
REMARK  141  A    between atoms: _367  and  _368
REMARK  142  A    between atoms: _374  and  _376
REMARK  143  A    between atoms: _376  and  _377
REMARK  144  A    between atoms: _376  and  _379
REMARK  145  A    between atoms: _379  and  _380
REMARK  146  A    between atoms: _385  and  _386
REMARK                            x       y       z     vdW  Elec       q    Type
REMARK                         _______ _______ _______ _____ _____    ______ ____
ROOT
ATOM      1  O   HOH     1      19.890 -11.340  -2.609  0.00  0.00    +0.000 OA
ENDROOT
TORSDOF 0
REMARK  Name = ../refined-set-2016/3ckb/3ckb_pocket.pdb
REMARK  146 active torsions:
REMARK  status: ('A' for Active; 'I' for Inactive)
REMARK    1  A    between atoms: _1  and  _3
REMARK    2  A    between atoms: _3  and  _4
REMARK    3  A    between atoms: _3  and  _6
REMARK    4  A    between atoms: _6  and  _7
REMARK    5  A    between atoms: _7  and  _8
REMARK    6  A    between atoms: _13  and  _15
REMARK    7  A    between atoms: _15  and  _16
REMARK    8  A    between atoms: _15  and  _18
REMARK    9  A    between atoms: _18  and  _19
REMARK   10  A    between atoms: _22  and  _24
REMARK   11  A    between atoms: _24  and  _25
REMARK   12  A    between atoms: _24  and  _27
REMARK   13  A    between atoms: _27  and  _28
REMARK   14  A    between atoms: _28  and  _29
REMARK   15  A    between atoms: _32  and  _34
REMARK   16  A    between atoms: _34  and  _35
REMARK   17  A    between atoms: _37  and  _39
REMARK   18  A    between atoms: _39  and  _40
REMARK   19  A    between atoms: _39  and  _42
REMARK   20  A    between atoms: _42  and  _43
REMARK   21  A    between atoms: _43  and  _44
REMARK   22  A    between atoms: _47  and  _49
REMARK   23  A    between atoms: _49  and  _50
REMARK   24  A    between atoms: _49  and  _52
REMARK   25  A    between atoms: _52  and  _53
REMARK   26  A    between atoms: _55  and  _57
REMARK   27  A    between atoms: _57  and  _58
REMARK   28  A    between atoms: _60  and  _62
REMARK   29  A    between atoms: _62  and  _63
REMARK   30  A    between atoms: _62  and  _65
REMARK   31  A    between atoms: _65  and  _66
REMARK   32  A    between atoms: _66  and  _67
REMARK   33  A    between atoms: _67  and  _68
REMARK   34  A    between atoms: _77  and  _79
REMARK   35  A    between atoms: _79  and  _80
REMARK   36  A    between atoms: _79  and  _82
REMARK   37  A    between atoms: _82  and  _83
REMARK   38  A    between atoms: _88  and  _90
REMARK   39  A    between atoms: _90  and  _91
REMARK   40  A    between atoms: _90  and  _93
REMARK   41  A    between atoms: _93  and  _94
REMARK   42  A    between atoms: _104  and  _106
REMARK   43  A    between atoms: _106  and  _107
REMARK   44  A    between atoms: _110  and  _112
REMARK   45  A    between atoms: _112  and  _113
REMARK   46  A    between atoms: _112  and  _115
REMARK   47  A    between atoms: _115  and  _116
REMARK   48  A    between atoms: _126  and  _128
REMARK   49  A    between atoms: _128  and  _129
REMARK   50  A    between atoms: _128  and  _131
REMARK   51  A    between atoms: _131  and  _132
REMARK   52  A    between atoms: _132  and  _133
REMARK   53  A    between atoms: _138  and  _140
REMARK   54  A    between atoms: _140  and  _141
REMARK   55  A    between atoms: _140  and  _143
REMARK   56  A    between atoms: _143  and  _144
REMARK   57  A    between atoms: _144  and  _145
REMARK   58  A    between atoms: _145  and  _146
REMARK   59  A    between atoms: _146  and  _147
REMARK   60  A    between atoms: _151  and  _153
REMARK   61  A    between atoms: _153  and  _154
REMARK   62  A    between atoms: _153  and  _156
REMARK   63  A    between atoms: _156  and  _157
REMARK   64  A    between atoms: _162  and  _164
REMARK   65  A    between atoms: _164  and  _165
REMARK   66  A    between atoms: _164  and  _167
REMARK   67  A    between atoms: _167  and  _168
REMARK   68  A    between atoms: _168  and  _169
REMARK   69  A    between atoms: _174  and  _176
REMARK   70  A    between atoms: _176  and  _177
REMARK   71  A    between atoms: _176  and  _179
REMARK   72  A    between atoms: _179  and  _180
REMARK   73  A    between atoms: _183  and  _185
REMARK   74  A    between atoms: _185  and  _186
REMARK   75  A    between atoms: _185  and  _188
REMARK   76  A    between atoms: _188  and  _189
REMARK   77  A    between atoms: _189  and  _190
REMARK   78  A    between atoms: _190  and  _191
REMARK   79  A    between atoms: _200  and  _202
REMARK   80  A    between atoms: _202  and  _203
REMARK   81  A    between atoms: _202  and  _205
REMARK   82  A    between atoms: _205  and  _206
REMARK   83  A    between atoms: _216  and  _218
REMARK   84  A    between atoms: _218  and  _219
REMARK   85  A    between atoms: _218  and  _221
REMARK   86  A    between atoms: _221  and  _222
REMARK   87  A    between atoms: _227  and  _229
REMARK   88  A    between atoms: _229  and  _230
REMARK   89  A    between atoms: _229  and  _232
REMARK   90  A    between atoms: _232  and  _233
REMARK   91  A    between atoms: _238  and  _239
REMARK   92  A    between atoms: _241  and  _243
REMARK   93  A    between atoms: _243  and  _244
REMARK   94  A    between atoms: _246  and  _248
REMARK   95  A    between atoms: _248  and  _249
REMARK   96  A    between atoms: _248  and  _251
REMARK   97  A    between atoms: _251  and  _252
REMARK   98  A    between atoms: _255  and  _257
REMARK   99  A    between atoms: _257  and  _258
REMARK  100  A    between atoms: _257  and  _260
REMARK  101  A    between atoms: _260  and  _261
REMARK  102  A    between atoms: _266  and  _267
REMARK  103  A    between atoms: _269  and  _271
REMARK  104  A    between atoms: _271  and  _272
REMARK  105  A    between atoms: _271  and  _274
REMARK  106  A    between atoms: _276  and  _278
REMARK  107  A    between atoms: _278  and  _279
REMARK  108  A    between atoms: _281  and  _283
REMARK  109  A    between atoms: _283  and  _284
REMARK  110  A    between atoms: _283  and  _286
REMARK  111  A    between atoms: _286  and  _287
REMARK  112  A    between atoms: _287  and  _288
REMARK  113  A    between atoms: _288  and  _289
REMARK  114  A    between atoms: _298  and  _300
REMARK  115  A    between atoms: _300  and  _301
REMARK  116  A    between atoms: _300  and  _303
REMARK  117  A    between atoms: _306  and  _308
REMARK  118  A    between atoms: _308  and  _309
REMARK  119  A    between atoms: _308  and  _311
REMARK  120  A    between atoms: _311  and  _312
REMARK  121  A    between atoms: _317  and  _319
REMARK  122  A    between atoms: _319  and  _320
REMARK  123  A    between atoms: _322  and  _324
REMARK  124  A    between atoms: _324  and  _325
REMARK  125  A    between atoms: _324  and  _327
REMARK  126  A    between atoms: _327  and  _328
REMARK  127  A    between atoms: _338  and  _340
REMARK  128  A    between atoms: _340  and  _341
REMARK  129  A    between atoms: _340  and  _343
REMARK  130  A    between atoms: _343  and  _344
REMARK  131  A    between atoms: _346  and  _348
REMARK  132  A    between atoms: _348  and  _349
REMARK  133  A    between atoms: _348  and  _351
REMARK  134  A    between atoms: _353  and  _355
REMARK  135  A    between atoms: _355  and  _356
REMARK  136  A    between atoms: _355  and  _358
REMARK  137  A    between atoms: _358  and  _359
REMARK  138  A    between atoms: _362  and  _364
REMARK  139  A    between atoms: _364  and  _365
REMARK  140  A    between atoms: _364  and  _367
REMARK  141  A    between atoms: _367  and  _368
REMARK  142  A    between atoms: _374  and  _376
REMARK  143  A    between atoms: _376  and  _377
REMARK  144  A    between atoms: _376  and  _379
REMARK  145  A    between atoms: _379  and  _380
REMARK  146  A    between atoms: _385  and  _386
REMARK                            x       y       z     vdW  Elec       q    Type
REMARK                         _______ _______ _______ _____ _____    ______ ____
ROOT
ATOM      1  O   HOH     1      23.616 -16.301 -12.558  0.00  0.00    +0.000 OA
ENDROOT
TORSDOF 0
REMARK  Name = ../refined-set-2016/3ckb/3ckb_pocket.pdb
REMARK  146 active torsions:
REMARK  status: ('A' for Active; 'I' for Inactive)
REMARK    1  A    between atoms: _1  and  _3
REMARK    2  A    between atoms: _3  and  _4
REMARK    3  A    between atoms: _3  and  _6
REMARK    4  A    between atoms: _6  and  _7
REMARK    5  A    between atoms: _7  and  _8
REMARK    6  A    between atoms: _13  and  _15
REMARK    7  A    between atoms: _15  and  _16
REMARK    8  A    between atoms: _15  and  _18
REMARK    9  A    between atoms: _18  and  _19
REMARK   10  A    between atoms: _22  and  _24
REMARK   11  A    between atoms: _24  and  _25
REMARK   12  A    between atoms: _24  and  _27
REMARK   13  A    between atoms: _27  and  _28
REMARK   14  A    between atoms: _28  and  _29
REMARK   15  A    between atoms: _32  and  _34
REMARK   16  A    between atoms: _34  and  _35
REMARK   17  A    between atoms: _37  and  _39
REMARK   18  A    between atoms: _39  and  _40
REMARK   19  A    between atoms: _39  and  _42
REMARK   20  A    between atoms: _42  and  _43
REMARK   21  A    between atoms: _43  and  _44
REMARK   22  A    between atoms: _47  and  _49
REMARK   23  A    between atoms: _49  and  _50
REMARK   24  A    between atoms: _49  and  _52
REMARK   25  A    between atoms: _52  and  _53
REMARK   26  A    between atoms: _55  and  _57
REMARK   27  A    between atoms: _57  and  _58
REMARK   28  A    between atoms: _60  and  _62
REMARK   29  A    between atoms: _62  and  _63
REMARK   30  A    between atoms: _62  and  _65
REMARK   31  A    between atoms: _65  and  _66
REMARK   32  A    between atoms: _66  and  _67
REMARK   33  A    between atoms: _67  and  _68
REMARK   34  A    between atoms: _77  and  _79
REMARK   35  A    between atoms: _79  and  _80
REMARK   36  A    between atoms: _79  and  _82
REMARK   37  A    between atoms: _82  and  _83
REMARK   38  A    between atoms: _88  and  _90
REMARK   39  A    between atoms: _90  and  _91
REMARK   40  A    between atoms: _90  and  _93
REMARK   41  A    between atoms: _93  and  _94
REMARK   42  A    between atoms: _104  and  _106
REMARK   43  A    between atoms: _106  and  _107
REMARK   44  A    between atoms: _110  and  _112
REMARK   45  A    between atoms: _112  and  _113
REMARK   46  A    between atoms: _112  and  _115
REMARK   47  A    between atoms: _115  and  _116
REMARK   48  A    between atoms: _126  and  _128
REMARK   49  A    between atoms: _128  and  _129
REMARK   50  A    between atoms: _128  and  _131
REMARK   51  A    between atoms: _131  and  _132
REMARK   52  A    between atoms: _132  and  _133
REMARK   53  A    between atoms: _138  and  _140
REMARK   54  A    between atoms: _140  and  _141
REMARK   55  A    between atoms: _140  and  _143
REMARK   56  A    between atoms: _143  and  _144
REMARK   57  A    between atoms: _144  and  _145
REMARK   58  A    between atoms: _145  and  _146
REMARK   59  A    between atoms: _146  and  _147
REMARK   60  A    between atoms: _151  and  _153
REMARK   61  A    between atoms: _153  and  _154
REMARK   62  A    between atoms: _153  and  _156
REMARK   63  A    between atoms: _156  and  _157
REMARK   64  A    between atoms: _162  and  _164
REMARK   65  A    between atoms: _164  and  _165
REMARK   66  A    between atoms: _164  and  _167
REMARK   67  A    between atoms: _167  and  _168
REMARK   68  A    between atoms: _168  and  _169
REMARK   69  A    between atoms: _174  and  _176
REMARK   70  A    between atoms: _176  and  _177
REMARK   71  A    between atoms: _176  and  _179
REMARK   72  A    between atoms: _179  and  _180
REMARK   73  A    between atoms: _183  and  _185
REMARK   74  A    between atoms: _185  and  _186
REMARK   75  A    between atoms: _185  and  _188
REMARK   76  A    between atoms: _188  and  _189
REMARK   77  A    between atoms: _189  and  _190
REMARK   78  A    between atoms: _190  and  _191
REMARK   79  A    between atoms: _200  and  _202
REMARK   80  A    between atoms: _202  and  _203
REMARK   81  A    between atoms: _202  and  _205
REMARK   82  A    between atoms: _205  and  _206
REMARK   83  A    between atoms: _216  and  _218
REMARK   84  A    between atoms: _218  and  _219
REMARK   85  A    between atoms: _218  and  _221
REMARK   86  A    between atoms: _221  and  _222
REMARK   87  A    between atoms: _227  and  _229
REMARK   88  A    between atoms: _229  and  _230
REMARK   89  A    between atoms: _229  and  _232
REMARK   90  A    between atoms: _232  and  _233
REMARK   91  A    between atoms: _238  and  _239
REMARK   92  A    between atoms: _241  and  _243
REMARK   93  A    between atoms: _243  and  _244
REMARK   94  A    between atoms: _246  and  _248
REMARK   95  A    between atoms: _248  and  _249
REMARK   96  A    between atoms: _248  and  _251
REMARK   97  A    between atoms: _251  and  _252
REMARK   98  A    between atoms: _255  and  _257
REMARK   99  A    between atoms: _257  and  _258
REMARK  100  A    between atoms: _257  and  _260
REMARK  101  A    between atoms: _260  and  _261
REMARK  102  A    between atoms: _266  and  _267
REMARK  103  A    between atoms: _269  and  _271
REMARK  104  A    between atoms: _271  and  _272
REMARK  105  A    between atoms: _271  and  _274
REMARK  106  A    between atoms: _276  and  _278
REMARK  107  A    between atoms: _278  and  _279
REMARK  108  A    between atoms: _281  and  _283
REMARK  109  A    between atoms: _283  and  _284
REMARK  110  A    between atoms: _283  and  _286
REMARK  111  A    between atoms: _286  and  _287
REMARK  112  A    between atoms: _287  and  _288
REMARK  113  A    between atoms: _288  and  _289
REMARK  114  A    between atoms: _298  and  _300
REMARK  115  A    between atoms: _300  and  _301
REMARK  116  A    between atoms: _300  and  _303
REMARK  117  A    between atoms: _306  and  _308
REMARK  118  A    between atoms: _308  and  _309
REMARK  119  A    between atoms: _308  and  _311
REMARK  120  A    between atoms: _311  and  _312
REMARK  121  A    between atoms: _317  and  _319
REMARK  122  A    between atoms: _319  and  _320
REMARK  123  A    between atoms: _322  and  _324
REMARK  124  A    between atoms: _324  and  _325
REMARK  125  A    between atoms: _324  and  _327
REMARK  126  A    between atoms: _327  and  _328
REMARK  127  A    between atoms: _338  and  _340
REMARK  128  A    between atoms: _340  and  _341
REMARK  129  A    between atoms: _340  and  _343
REMARK  130  A    between atoms: _343  and  _344
REMARK  131  A    between atoms: _346  and  _348
REMARK  132  A    between atoms: _348  and  _349
REMARK  133  A    between atoms: _348  and  _351
REMARK  134  A    between atoms: _353  and  _355
REMARK  135  A    between atoms: _355  and  _356
REMARK  136  A    between atoms: _355  and  _358
REMARK  137  A    between atoms: _358  and  _359
REMARK  138  A    between atoms: _362  and  _364
REMARK  139  A    between atoms: _364  and  _365
REMARK  140  A    between atoms: _364  and  _367
REMARK  141  A    between atoms: _367  and  _368
REMARK  142  A    between atoms: _374  and  _376
REMARK  143  A    between atoms: _376  and  _377
REMARK  144  A    between atoms: _376  and  _379
REMARK  145  A    between atoms: _379  and  _380
REMARK  146  A    between atoms: _385  and  _386
REMARK                            x       y       z     vdW  Elec       q    Type
REMARK                         _______ _______ _______ _____ _____    ______ ____
ROOT
ATOM      1  O   HOH     1      12.447 -18.103 -11.929  0.00  0.00    +0.000 OA
ENDROOT
TORSDOF 0
REMARK  Name = ../refined-set-2016/3ckb/3ckb_pocket.pdb
REMARK  146 active torsions:
REMARK  status: ('A' for Active; 'I' for Inactive)
REMARK    1  A    between atoms: _1  and  _3
REMARK    2  A    between atoms: _3  and  _4
REMARK    3  A    between atoms: _3  and  _6
REMARK    4  A    between atoms: _6  and  _7
REMARK    5  A    between atoms: _7  and  _8
REMARK    6  A    between atoms: _13  and  _15
REMARK    7  A    between atoms: _15  and  _16
REMARK    8  A    between atoms: _15  and  _18
REMARK    9  A    between atoms: _18  and  _19
REMARK   10  A    between atoms: _22  and  _24
REMARK   11  A    between atoms: _24  and  _25
REMARK   12  A    between atoms: _24  and  _27
REMARK   13  A    between atoms: _27  and  _28
REMARK   14  A    between atoms: _28  and  _29
REMARK   15  A    between atoms: _32  and  _34
REMARK   16  A    between atoms: _34  and  _35
REMARK   17  A    between atoms: _37  and  _39
REMARK   18  A    between atoms: _39  and  _40
REMARK   19  A    between atoms: _39  and  _42
REMARK   20  A    between atoms: _42  and  _43
REMARK   21  A    between atoms: _43  and  _44
REMARK   22  A    between atoms: _47  and  _49
REMARK   23  A    between atoms: _49  and  _50
REMARK   24  A    between atoms: _49  and  _52
REMARK   25  A    between atoms: _52  and  _53
REMARK   26  A    between atoms: _55  and  _57
REMARK   27  A    between atoms: _57  and  _58
REMARK   28  A    between atoms: _60  and  _62
REMARK   29  A    between atoms: _62  and  _63
REMARK   30  A    between atoms: _62  and  _65
REMARK   31  A    between atoms: _65  and  _66
REMARK   32  A    between atoms: _66  and  _67
REMARK   33  A    between atoms: _67  and  _68
REMARK   34  A    between atoms: _77  and  _79
REMARK   35  A    between atoms: _79  and  _80
REMARK   36  A    between atoms: _79  and  _82
REMARK   37  A    between atoms: _82  and  _83
REMARK   38  A    between atoms: _88  and  _90
REMARK   39  A    between atoms: _90  and  _91
REMARK   40  A    between atoms: _90  and  _93
REMARK   41  A    between atoms: _93  and  _94
REMARK   42  A    between atoms: _104  and  _106
REMARK   43  A    between atoms: _106  and  _107
REMARK   44  A    between atoms: _110  and  _112
REMARK   45  A    between atoms: _112  and  _113
REMARK   46  A    between atoms: _112  and  _115
REMARK   47  A    between atoms: _115  and  _116
REMARK   48  A    between atoms: _126  and  _128
REMARK   49  A    between atoms: _128  and  _129
REMARK   50  A    between atoms: _128  and  _131
REMARK   51  A    between atoms: _131  and  _132
REMARK   52  A    between atoms: _132  and  _133
REMARK   53  A    between atoms: _138  and  _140
REMARK   54  A    between atoms: _140  and  _141
REMARK   55  A    between atoms: _140  and  _143
REMARK   56  A    between atoms: _143  and  _144
REMARK   57  A    between atoms: _144  and  _145
REMARK   58  A    between atoms: _145  and  _146
REMARK   59  A    between atoms: _146  and  _147
REMARK   60  A    between atoms: _151  and  _153
REMARK   61  A    between atoms: _153  and  _154
REMARK   62  A    between atoms: _153  and  _156
REMARK   63  A    between atoms: _156  and  _157
REMARK   64  A    between atoms: _162  and  _164
REMARK   65  A    between atoms: _164  and  _165
REMARK   66  A    between atoms: _164  and  _167
REMARK   67  A    between atoms: _167  and  _168
REMARK   68  A    between atoms: _168  and  _169
REMARK   69  A    between atoms: _174  and  _176
REMARK   70  A    between atoms: _176  and  _177
REMARK   71  A    between atoms: _176  and  _179
REMARK   72  A    between atoms: _179  and  _180
REMARK   73  A    between atoms: _183  and  _185
REMARK   74  A    between atoms: _185  and  _186
REMARK   75  A    between atoms: _185  and  _188
REMARK   76  A    between atoms: _188  and  _189
REMARK   77  A    between atoms: _189  and  _190
REMARK   78  A    between atoms: _190  and  _191
REMARK   79  A    between atoms: _200  and  _202
REMARK   80  A    between atoms: _202  and  _203
REMARK   81  A    between atoms: _202  and  _205
REMARK   82  A    between atoms: _205  and  _206
REMARK   83  A    between atoms: _216  and  _218
REMARK   84  A    between atoms: _218  and  _219
REMARK   85  A    between atoms: _218  and  _221
REMARK   86  A    between atoms: _221  and  _222
REMARK   87  A    between atoms: _227  and  _229
REMARK   88  A    between atoms: _229  and  _230
REMARK   89  A    between atoms: _229  and  _232
REMARK   90  A    between atoms: _232  and  _233
REMARK   91  A    between atoms: _238  and  _239
REMARK   92  A    between atoms: _241  and  _243
REMARK   93  A    between atoms: _243  and  _244
REMARK   94  A    between atoms: _246  and  _248
REMARK   95  A    between atoms: _248  and  _249
REMARK   96  A    between atoms: _248  and  _251
REMARK   97  A    between atoms: _251  and  _252
REMARK   98  A    between atoms: _255  and  _257
REMARK   99  A    between atoms: _257  and  _258
REMARK  100  A    between atoms: _257  and  _260
REMARK  101  A    between atoms: _260  and  _261
REMARK  102  A    between atoms: _266  and  _267
REMARK  103  A    between atoms: _269  and  _271
REMARK  104  A    between atoms: _271  and  _272
REMARK  105  A    between atoms: _271  and  _274
REMARK  106  A    between atoms: _276  and  _278
REMARK  107  A    between atoms: _278  and  _279
REMARK  108  A    between atoms: _281  and  _283
REMARK  109  A    between atoms: _283  and  _284
REMARK  110  A    between atoms: _283  and  _286
REMARK  111  A    between atoms: _286  and  _287
REMARK  112  A    between atoms: _287  and  _288
REMARK  113  A    between atoms: _288  and  _289
REMARK  114  A    between atoms: _298  and  _300
REMARK  115  A    between atoms: _300  and  _301
REMARK  116  A    between atoms: _300  and  _303
REMARK  117  A    between atoms: _306  and  _308
REMARK  118  A    between atoms: _308  and  _309
REMARK  119  A    between atoms: _308  and  _311
REMARK  120  A    between atoms: _311  and  _312
REMARK  121  A    between atoms: _317  and  _319
REMARK  122  A    between atoms: _319  and  _320
REMARK  123  A    between atoms: _322  and  _324
REMARK  124  A    between atoms: _324  and  _325
REMARK  125  A    between atoms: _324  and  _327
REMARK  126  A    between atoms: _327  and  _328
REMARK  127  A    between atoms: _338  and  _340
REMARK  128  A    between atoms: _340  and  _341
REMARK  129  A    between atoms: _340  and  _343
REMARK  130  A    between atoms: _343  and  _344
REMARK  131  A    between atoms: _346  and  _348
REMARK  132  A    between atoms: _348  and  _349
REMARK  133  A    between atoms: _348  and  _351
REMARK  134  A    between atoms: _353  and  _355
REMARK  135  A    between atoms: _355  and  _356
REMARK  136  A    between atoms: _355  and  _358
REMARK  137  A    between atoms: _358  and  _359
REMARK  138  A    between atoms: _362  and  _364
REMARK  139  A    between atoms: _364  and  _365
REMARK  140  A    between atoms: _364  and  _367
REMARK  141  A    between atoms: _367  and  _368
REMARK  142  A    between atoms: _374  and  _376
REMARK  143  A    between atoms: _376  and  _377
REMARK  144  A    between atoms: _376  and  _379
REMARK  145  A    between atoms: _379  and  _380
REMARK  146  A    between atoms: _385  and  _386
REMARK                            x       y       z     vdW  Elec       q    Type
REMARK                         _______ _______ _______ _____ _____    ______ ____
ROOT
ATOM      1  O   HOH     1      22.558  -9.853  -8.858  0.00  0.00    +0.000 OA
ENDROOT
TORSDOF 0
REMARK  Name = ../refined-set-2016/3ckb/3ckb_pocket.pdb
REMARK  146 active torsions:
REMARK  status: ('A' for Active; 'I' for Inactive)
REMARK    1  A    between atoms: _1  and  _3
REMARK    2  A    between atoms: _3  and  _4
REMARK    3  A    between atoms: _3  and  _6
REMARK    4  A    between atoms: _6  and  _7
REMARK    5  A    between atoms: _7  and  _8
REMARK    6  A    between atoms: _13  and  _15
REMARK    7  A    between atoms: _15  and  _16
REMARK    8  A    between atoms: _15  and  _18
REMARK    9  A    between atoms: _18  and  _19
REMARK   10  A    between atoms: _22  and  _24
REMARK   11  A    between atoms: _24  and  _25
REMARK   12  A    between atoms: _24  and  _27
REMARK   13  A    between atoms: _27  and  _28
REMARK   14  A    between atoms: _28  and  _29
REMARK   15  A    between atoms: _32  and  _34
REMARK   16  A    between atoms: _34  and  _35
REMARK   17  A    between atoms: _37  and  _39
REMARK   18  A    between atoms: _39  and  _40
REMARK   19  A    between atoms: _39  and  _42
REMARK   20  A    between atoms: _42  and  _43
REMARK   21  A    between atoms: _43  and  _44
REMARK   22  A    between atoms: _47  and  _49
REMARK   23  A    between atoms: _49  and  _50
REMARK   24  A    between atoms: _49  and  _52
REMARK   25  A    between atoms: _52  and  _53
REMARK   26  A    between atoms: _55  and  _57
REMARK   27  A    between atoms: _57  and  _58
REMARK   28  A    between atoms: _60  and  _62
REMARK   29  A    between atoms: _62  and  _63
REMARK   30  A    between atoms: _62  and  _65
REMARK   31  A    between atoms: _65  and  _66
REMARK   32  A    between atoms: _66  and  _67
REMARK   33  A    between atoms: _67  and  _68
REMARK   34  A    between atoms: _77  and  _79
REMARK   35  A    between atoms: _79  and  _80
REMARK   36  A    between atoms: _79  and  _82
REMARK   37  A    between atoms: _82  and  _83
REMARK   38  A    between atoms: _88  and  _90
REMARK   39  A    between atoms: _90  and  _91
REMARK   40  A    between atoms: _90  and  _93
REMARK   41  A    between atoms: _93  and  _94
REMARK   42  A    between atoms: _104  and  _106
REMARK   43  A    between atoms: _106  and  _107
REMARK   44  A    between atoms: _110  and  _112
REMARK   45  A    between atoms: _112  and  _113
REMARK   46  A    between atoms: _112  and  _115
REMARK   47  A    between atoms: _115  and  _116
REMARK   48  A    between atoms: _126  and  _128
REMARK   49  A    between atoms: _128  and  _129
REMARK   50  A    between atoms: _128  and  _131
REMARK   51  A    between atoms: _131  and  _132
REMARK   52  A    between atoms: _132  and  _133
REMARK   53  A    between atoms: _138  and  _140
REMARK   54  A    between atoms: _140  and  _141
REMARK   55  A    between atoms: _140  and  _143
REMARK   56  A    between atoms: _143  and  _144
REMARK   57  A    between atoms: _144  and  _145
REMARK   58  A    between atoms: _145  and  _146
REMARK   59  A    between atoms: _146  and  _147
REMARK   60  A    between atoms: _151  and  _153
REMARK   61  A    between atoms: _153  and  _154
REMARK   62  A    between atoms: _153  and  _156
REMARK   63  A    between atoms: _156  and  _157
REMARK   64  A    between atoms: _162  and  _164
REMARK   65  A    between atoms: _164  and  _165
REMARK   66  A    between atoms: _164  and  _167
REMARK   67  A    between atoms: _167  and  _168
REMARK   68  A    between atoms: _168  and  _169
REMARK   69  A    between atoms: _174  and  _176
REMARK   70  A    between atoms: _176  and  _177
REMARK   71  A    between atoms: _176  and  _179
REMARK   72  A    between atoms: _179  and  _180
REMARK   73  A    between atoms: _183  and  _185
REMARK   74  A    between atoms: _185  and  _186
REMARK   75  A    between atoms: _185  and  _188
REMARK   76  A    between atoms: _188  and  _189
REMARK   77  A    between atoms: _189  and  _190
REMARK   78  A    between atoms: _190  and  _191
REMARK   79  A    between atoms: _200  and  _202
REMARK   80  A    between atoms: _202  and  _203
REMARK   81  A    between atoms: _202  and  _205
REMARK   82  A    between atoms: _205  and  _206
REMARK   83  A    between atoms: _216  and  _218
REMARK   84  A    between atoms: _218  and  _219
REMARK   85  A    between atoms: _218  and  _221
REMARK   86  A    between atoms: _221  and  _222
REMARK   87  A    between atoms: _227  and  _229
REMARK   88  A    between atoms: _229  and  _230
REMARK   89  A    between atoms: _229  and  _232
REMARK   90  A    between atoms: _232  and  _233
REMARK   91  A    between atoms: _238  and  _239
REMARK   92  A    between atoms: _241  and  _243
REMARK   93  A    between atoms: _243  and  _244
REMARK   94  A    between atoms: _246  and  _248
REMARK   95  A    between atoms: _248  and  _249
REMARK   96  A    between atoms: _248  and  _251
REMARK   97  A    between atoms: _251  and  _252
REMARK   98  A    between atoms: _255  and  _257
REMARK   99  A    between atoms: _257  and  _258
REMARK  100  A    between atoms: _257  and  _260
REMARK  101  A    between atoms: _260  and  _261
REMARK  102  A    between atoms: _266  and  _267
REMARK  103  A    between atoms: _269  and  _271
REMARK  104  A    between atoms: _271  and  _272
REMARK  105  A    between atoms: _271  and  _274
REMARK  106  A    between atoms: _276  and  _278
REMARK  107  A    between atoms: _278  and  _279
REMARK  108  A    between atoms: _281  and  _283
REMARK  109  A    between atoms: _283  and  _284
REMARK  110  A    between atoms: _283  and  _286
REMARK  111  A    between atoms: _286  and  _287
REMARK  112  A    between atoms: _287  and  _288
REMARK  113  A    between atoms: _288  and  _289
REMARK  114  A    between atoms: _298  and  _300
REMARK  115  A    between atoms: _300  and  _301
REMARK  116  A    between atoms: _300  and  _303
REMARK  117  A    between atoms: _306  and  _308
REMARK  118  A    between atoms: _308  and  _309
REMARK  119  A    between atoms: _308  and  _311
REMARK  120  A    between atoms: _311  and  _312
REMARK  121  A    between atoms: _317  and  _319
REMARK  122  A    between atoms: _319  and  _320
REMARK  123  A    between atoms: _322  and  _324
REMARK  124  A    between atoms: _324  and  _325
REMARK  125  A    between atoms: _324  and  _327
REMARK  126  A    between atoms: _327  and  _328
REMARK  127  A    between atoms: _338  and  _340
REMARK  128  A    between atoms: _340  and  _341
REMARK  129  A    between atoms: _340  and  _343
REMARK  130  A    between atoms: _343  and  _344
REMARK  131  A    between atoms: _346  and  _348
REMARK  132  A    between atoms: _348  and  _349
REMARK  133  A    between atoms: _348  and  _351
REMARK  134  A    between atoms: _353  and  _355
REMARK  135  A    between atoms: _355  and  _356
REMARK  136  A    between atoms: _355  and  _358
REMARK  137  A    between atoms: _358  and  _359
REMARK  138  A    between atoms: _362  and  _364
REMARK  139  A    between atoms: _364  and  _365
REMARK  140  A    between atoms: _364  and  _367
REMARK  141  A    between atoms: _367  and  _368
REMARK  142  A    between atoms: _374  and  _376
REMARK  143  A    between atoms: _376  and  _377
REMARK  144  A    between atoms: _376  and  _379
REMARK  145  A    between atoms: _379  and  _380
REMARK  146  A    between atoms: _385  and  _386
REMARK                            x       y       z     vdW  Elec       q    Type
REMARK                         _______ _______ _______ _____ _____    ______ ____
ROOT
ATOM      1  O   HOH     1       8.910 -21.917   4.302  0.00  0.00    +0.000 OA
ENDROOT
TORSDOF 0
REMARK  Name = ../refined-set-2016/3ckb/3ckb_pocket.pdb
REMARK  146 active torsions:
REMARK  status: ('A' for Active; 'I' for Inactive)
REMARK    1  A    between atoms: _1  and  _3
REMARK    2  A    between atoms: _3  and  _4
REMARK    3  A    between atoms: _3  and  _6
REMARK    4  A    between atoms: _6  and  _7
REMARK    5  A    between atoms: _7  and  _8
REMARK    6  A    between atoms: _13  and  _15
REMARK    7  A    between atoms: _15  and  _16
REMARK    8  A    between atoms: _15  and  _18
REMARK    9  A    between atoms: _18  and  _19
REMARK   10  A    between atoms: _22  and  _24
REMARK   11  A    between atoms: _24  and  _25
REMARK   12  A    between atoms: _24  and  _27
REMARK   13  A    between atoms: _27  and  _28
REMARK   14  A    between atoms: _28  and  _29
REMARK   15  A    between atoms: _32  and  _34
REMARK   16  A    between atoms: _34  and  _35
REMARK   17  A    between atoms: _37  and  _39
REMARK   18  A    between atoms: _39  and  _40
REMARK   19  A    between atoms: _39  and  _42
REMARK   20  A    between atoms: _42  and  _43
REMARK   21  A    between atoms: _43  and  _44
REMARK   22  A    between atoms: _47  and  _49
REMARK   23  A    between atoms: _49  and  _50
REMARK   24  A    between atoms: _49  and  _52
REMARK   25  A    between atoms: _52  and  _53
REMARK   26  A    between atoms: _55  and  _57
REMARK   27  A    between atoms: _57  and  _58
REMARK   28  A    between atoms: _60  and  _62
REMARK   29  A    between atoms: _62  and  _63
REMARK   30  A    between atoms: _62  and  _65
REMARK   31  A    between atoms: _65  and  _66
REMARK   32  A    between atoms: _66  and  _67
REMARK   33  A    between atoms: _67  and  _68
REMARK   34  A    between atoms: _77  and  _79
REMARK   35  A    between atoms: _79  and  _80
REMARK   36  A    between atoms: _79  and  _82
REMARK   37  A    between atoms: _82  and  _83
REMARK   38  A    between atoms: _88  and  _90
REMARK   39  A    between atoms: _90  and  _91
REMARK   40  A    between atoms: _90  and  _93
REMARK   41  A    between atoms: _93  and  _94
REMARK   42  A    between atoms: _104  and  _106
REMARK   43  A    between atoms: _106  and  _107
REMARK   44  A    between atoms: _110  and  _112
REMARK   45  A    between atoms: _112  and  _113
REMARK   46  A    between atoms: _112  and  _115
REMARK   47  A    between atoms: _115  and  _116
REMARK   48  A    between atoms: _126  and  _128
REMARK   49  A    between atoms: _128  and  _129
REMARK   50  A    between atoms: _128  and  _131
REMARK   51  A    between atoms: _131  and  _132
REMARK   52  A    between atoms: _132  and  _133
REMARK   53  A    between atoms: _138  and  _140
REMARK   54  A    between atoms: _140  and  _141
REMARK   55  A    between atoms: _140  and  _143
REMARK   56  A    between atoms: _143  and  _144
REMARK   57  A    between atoms: _144  and  _145
REMARK   58  A    between atoms: _145  and  _146
REMARK   59  A    between atoms: _146  and  _147
REMARK   60  A    between atoms: _151  and  _153
REMARK   61  A    between atoms: _153  and  _154
REMARK   62  A    between atoms: _153  and  _156
REMARK   63  A    between atoms: _156  and  _157
REMARK   64  A    between atoms: _162  and  _164
REMARK   65  A    between atoms: _164  and  _165
REMARK   66  A    between atoms: _164  and  _167
REMARK   67  A    between atoms: _167  and  _168
REMARK   68  A    between atoms: _168  and  _169
REMARK   69  A    between atoms: _174  and  _176
REMARK   70  A    between atoms: _176  and  _177
REMARK   71  A    between atoms: _176  and  _179
REMARK   72  A    between atoms: _179  and  _180
REMARK   73  A    between atoms: _183  and  _185
REMARK   74  A    between atoms: _185  and  _186
REMARK   75  A    between atoms: _185  and  _188
REMARK   76  A    between atoms: _188  and  _189
REMARK   77  A    between atoms: _189  and  _190
REMARK   78  A    between atoms: _190  and  _191
REMARK   79  A    between atoms: _200  and  _202
REMARK   80  A    between atoms: _202  and  _203
REMARK   81  A    between atoms: _202  and  _205
REMARK   82  A    between atoms: _205  and  _206
REMARK   83  A    between atoms: _216  and  _218
REMARK   84  A    between atoms: _218  and  _219
REMARK   85  A    between atoms: _218  and  _221
REMARK   86  A    between atoms: _221  and  _222
REMARK   87  A    between atoms: _227  and  _229
REMARK   88  A    between atoms: _229  and  _230
REMARK   89  A    between atoms: _229  and  _232
REMARK   90  A    between atoms: _232  and  _233
REMARK   91  A    between atoms: _238  and  _239
REMARK   92  A    between atoms: _241  and  _243
REMARK   93  A    between atoms: _243  and  _244
REMARK   94  A    between atoms: _246  and  _248
REMARK   95  A    between atoms: _248  and  _249
REMARK   96  A    between atoms: _248  and  _251
REMARK   97  A    between atoms: _251  and  _252
REMARK   98  A    between atoms: _255  and  _257
REMARK   99  A    between atoms: _257  and  _258
REMARK  100  A    between atoms: _257  and  _260
REMARK  101  A    between atoms: _260  and  _261
REMARK  102  A    between atoms: _266  and  _267
REMARK  103  A    between atoms: _269  and  _271
REMARK  104  A    between atoms: _271  and  _272
REMARK  105  A    between atoms: _271  and  _274
REMARK  106  A    between atoms: _276  and  _278
REMARK  107  A    between atoms: _278  and  _279
REMARK  108  A    between atoms: _281  and  _283
REMARK  109  A    between atoms: _283  and  _284
REMARK  110  A    between atoms: _283  and  _286
REMARK  111  A    between atoms: _286  and  _287
REMARK  112  A    between atoms: _287  and  _288
REMARK  113  A    between atoms: _288  and  _289
REMARK  114  A    between atoms: _298  and  _300
REMARK  115  A    between atoms: _300  and  _301
REMARK  116  A    between atoms: _300  and  _303
REMARK  117  A    between atoms: _306  and  _308
REMARK  118  A    between atoms: _308  and  _309
REMARK  119  A    between atoms: _308  and  _311
REMARK  120  A    between atoms: _311  and  _312
REMARK  121  A    between atoms: _317  and  _319
REMARK  122  A    between atoms: _319  and  _320
REMARK  123  A    between atoms: _322  and  _324
REMARK  124  A    between atoms: _324  and  _325
REMARK  125  A    between atoms: _324  and  _327
REMARK  126  A    between atoms: _327  and  _328
REMARK  127  A    between atoms: _338  and  _340
REMARK  128  A    between atoms: _340  and  _341
REMARK  129  A    between atoms: _340  and  _343
REMARK  130  A    between atoms: _343  and  _344
REMARK  131  A    between atoms: _346  and  _348
REMARK  132  A    between atoms: _348  and  _349
REMARK  133  A    between atoms: _348  and  _351
REMARK  134  A    between atoms: _353  and  _355
REMARK  135  A    between atoms: _355  and  _356
REMARK  136  A    between atoms: _355  and  _358
REMARK  137  A    between atoms: _358  and  _359
REMARK  138  A    between atoms: _362  and  _364
REMARK  139  A    between atoms: _364  and  _365
REMARK  140  A    between atoms: _364  and  _367
REMARK  141  A    between atoms: _367  and  _368
REMARK  142  A    between atoms: _374  and  _376
REMARK  143  A    between atoms: _376  and  _377
REMARK  144  A    between atoms: _376  and  _379
REMARK  145  A    between atoms: _379  and  _380
REMARK  146  A    between atoms: _385  and  _386
REMARK                            x       y       z     vdW  Elec       q    Type
REMARK                         _______ _______ _______ _____ _____    ______ ____
ROOT
ATOM      1  O   HOH     1       8.439 -27.105  -3.568  0.00  0.00    +0.000 OA
ENDROOT
TORSDOF 0
REMARK  Name = ../refined-set-2016/3ckb/3ckb_pocket.pdb
REMARK  146 active torsions:
REMARK  status: ('A' for Active; 'I' for Inactive)
REMARK    1  A    between atoms: _1  and  _3
REMARK    2  A    between atoms: _3  and  _4
REMARK    3  A    between atoms: _3  and  _6
REMARK    4  A    between atoms: _6  and  _7
REMARK    5  A    between atoms: _7  and  _8
REMARK    6  A    between atoms: _13  and  _15
REMARK    7  A    between atoms: _15  and  _16
REMARK    8  A    between atoms: _15  and  _18
REMARK    9  A    between atoms: _18  and  _19
REMARK   10  A    between atoms: _22  and  _24
REMARK   11  A    between atoms: _24  and  _25
REMARK   12  A    between atoms: _24  and  _27
REMARK   13  A    between atoms: _27  and  _28
REMARK   14  A    between atoms: _28  and  _29
REMARK   15  A    between atoms: _32  and  _34
REMARK   16  A    between atoms: _34  and  _35
REMARK   17  A    between atoms: _37  and  _39
REMARK   18  A    between atoms: _39  and  _40
REMARK   19  A    between atoms: _39  and  _42
REMARK   20  A    between atoms: _42  and  _43
REMARK   21  A    between atoms: _43  and  _44
REMARK   22  A    between atoms: _47  and  _49
REMARK   23  A    between atoms: _49  and  _50
REMARK   24  A    between atoms: _49  and  _52
REMARK   25  A    between atoms: _52  and  _53
REMARK   26  A    between atoms: _55  and  _57
REMARK   27  A    between atoms: _57  and  _58
REMARK   28  A    between atoms: _60  and  _62
REMARK   29  A    between atoms: _62  and  _63
REMARK   30  A    between atoms: _62  and  _65
REMARK   31  A    between atoms: _65  and  _66
REMARK   32  A    between atoms: _66  and  _67
REMARK   33  A    between atoms: _67  and  _68
REMARK   34  A    between atoms: _77  and  _79
REMARK   35  A    between atoms: _79  and  _80
REMARK   36  A    between atoms: _79  and  _82
REMARK   37  A    between atoms: _82  and  _83
REMARK   38  A    between atoms: _88  and  _90
REMARK   39  A    between atoms: _90  and  _91
REMARK   40  A    between atoms: _90  and  _93
REMARK   41  A    between atoms: _93  and  _94
REMARK   42  A    between atoms: _104  and  _106
REMARK   43  A    between atoms: _106  and  _107
REMARK   44  A    between atoms: _110  and  _112
REMARK   45  A    between atoms: _112  and  _113
REMARK   46  A    between atoms: _112  and  _115
REMARK   47  A    between atoms: _115  and  _116
REMARK   48  A    between atoms: _126  and  _128
REMARK   49  A    between atoms: _128  and  _129
REMARK   50  A    between atoms: _128  and  _131
REMARK   51  A    between atoms: _131  and  _132
REMARK   52  A    between atoms: _132  and  _133
REMARK   53  A    between atoms: _138  and  _140
REMARK   54  A    between atoms: _140  and  _141
REMARK   55  A    between atoms: _140  and  _143
REMARK   56  A    between atoms: _143  and  _144
REMARK   57  A    between atoms: _144  and  _145
REMARK   58  A    between atoms: _145  and  _146
REMARK   59  A    between atoms: _146  and  _147
REMARK   60  A    between atoms: _151  and  _153
REMARK   61  A    between atoms: _153  and  _154
REMARK   62  A    between atoms: _153  and  _156
REMARK   63  A    between atoms: _156  and  _157
REMARK   64  A    between atoms: _162  and  _164
REMARK   65  A    between atoms: _164  and  _165
REMARK   66  A    between atoms: _164  and  _167
REMARK   67  A    between atoms: _167  and  _168
REMARK   68  A    between atoms: _168  and  _169
REMARK   69  A    between atoms: _174  and  _176
REMARK   70  A    between atoms: _176  and  _177
REMARK   71  A    between atoms: _176  and  _179
REMARK   72  A    between atoms: _179  and  _180
REMARK   73  A    between atoms: _183  and  _185
REMARK   74  A    between atoms: _185  and  _186
REMARK   75  A    between atoms: _185  and  _188
REMARK   76  A    between atoms: _188  and  _189
REMARK   77  A    between atoms: _189  and  _190
REMARK   78  A    between atoms: _190  and  _191
REMARK   79  A    between atoms: _200  and  _202
REMARK   80  A    between atoms: _202  and  _203
REMARK   81  A    between atoms: _202  and  _205
REMARK   82  A    between atoms: _205  and  _206
REMARK   83  A    between atoms: _216  and  _218
REMARK   84  A    between atoms: _218  and  _219
REMARK   85  A    between atoms: _218  and  _221
REMARK   86  A    between atoms: _221  and  _222
REMARK   87  A    between atoms: _227  and  _229
REMARK   88  A    between atoms: _229  and  _230
REMARK   89  A    between atoms: _229  and  _232
REMARK   90  A    between atoms: _232  and  _233
REMARK   91  A    between atoms: _238  and  _239
REMARK   92  A    between atoms: _241  and  _243
REMARK   93  A    between atoms: _243  and  _244
REMARK   94  A    between atoms: _246  and  _248
REMARK   95  A    between atoms: _248  and  _249
REMARK   96  A    between atoms: _248  and  _251
REMARK   97  A    between atoms: _251  and  _252
REMARK   98  A    between atoms: _255  and  _257
REMARK   99  A    between atoms: _257  and  _258
REMARK  100  A    between atoms: _257  and  _260
REMARK  101  A    between atoms: _260  and  _261
REMARK  102  A    between atoms: _266  and  _267
REMARK  103  A    between atoms: _269  and  _271
REMARK  104  A    between atoms: _271  and  _272
REMARK  105  A    between atoms: _271  and  _274
REMARK  106  A    between atoms: _276  and  _278
REMARK  107  A    between atoms: _278  and  _279
REMARK  108  A    between atoms: _281  and  _283
REMARK  109  A    between atoms: _283  and  _284
REMARK  110  A    between atoms: _283  and  _286
REMARK  111  A    between atoms: _286  and  _287
REMARK  112  A    between atoms: _287  and  _288
REMARK  113  A    between atoms: _288  and  _289
REMARK  114  A    between atoms: _298  and  _300
REMARK  115  A    between atoms: _300  and  _301
REMARK  116  A    between atoms: _300  and  _303
REMARK  117  A    between atoms: _306  and  _308
REMARK  118  A    between atoms: _308  and  _309
REMARK  119  A    between atoms: _308  and  _311
REMARK  120  A    between atoms: _311  and  _312
REMARK  121  A    between atoms: _317  and  _319
REMARK  122  A    between atoms: _319  and  _320
REMARK  123  A    between atoms: _322  and  _324
REMARK  124  A    between atoms: _324  and  _325
REMARK  125  A    between atoms: _324  and  _327
REMARK  126  A    between atoms: _327  and  _328
REMARK  127  A    between atoms: _338  and  _340
REMARK  128  A    between atoms: _340  and  _341
REMARK  129  A    between atoms: _340  and  _343
REMARK  130  A    between atoms: _343  and  _344
REMARK  131  A    between atoms: _346  and  _348
REMARK  132  A    between atoms: _348  and  _349
REMARK  133  A    between atoms: _348  and  _351
REMARK  134  A    between atoms: _353  and  _355
REMARK  135  A    between atoms: _355  and  _356
REMARK  136  A    between atoms: _355  and  _358
REMARK  137  A    between atoms: _358  and  _359
REMARK  138  A    between atoms: _362  and  _364
REMARK  139  A    between atoms: _364  and  _365
REMARK  140  A    between atoms: _364  and  _367
REMARK  141  A    between atoms: _367  and  _368
REMARK  142  A    between atoms: _374  and  _376
REMARK  143  A    between atoms: _376  and  _377
REMARK  144  A    between atoms: _376  and  _379
REMARK  145  A    between atoms: _379  and  _380
REMARK  146  A    between atoms: _385  and  _386
REMARK                            x       y       z     vdW  Elec       q    Type
REMARK                         _______ _______ _______ _____ _____    ______ ____
ROOT
ATOM      1  O   HOH     1      26.673 -18.235  -1.951  0.00  0.00    +0.000 OA
ENDROOT
TORSDOF 0
REMARK  Name = ../refined-set-2016/3ckb/3ckb_pocket.pdb
REMARK  146 active torsions:
REMARK  status: ('A' for Active; 'I' for Inactive)
REMARK    1  A    between atoms: _1  and  _3
REMARK    2  A    between atoms: _3  and  _4
REMARK    3  A    between atoms: _3  and  _6
REMARK    4  A    between atoms: _6  and  _7
REMARK    5  A    between atoms: _7  and  _8
REMARK    6  A    between atoms: _13  and  _15
REMARK    7  A    between atoms: _15  and  _16
REMARK    8  A    between atoms: _15  and  _18
REMARK    9  A    between atoms: _18  and  _19
REMARK   10  A    between atoms: _22  and  _24
REMARK   11  A    between atoms: _24  and  _25
REMARK   12  A    between atoms: _24  and  _27
REMARK   13  A    between atoms: _27  and  _28
REMARK   14  A    between atoms: _28  and  _29
REMARK   15  A    between atoms: _32  and  _34
REMARK   16  A    between atoms: _34  and  _35
REMARK   17  A    between atoms: _37  and  _39
REMARK   18  A    between atoms: _39  and  _40
REMARK   19  A    between atoms: _39  and  _42
REMARK   20  A    between atoms: _42  and  _43
REMARK   21  A    between atoms: _43  and  _44
REMARK   22  A    between atoms: _47  and  _49
REMARK   23  A    between atoms: _49  and  _50
REMARK   24  A    between atoms: _49  and  _52
REMARK   25  A    between atoms: _52  and  _53
REMARK   26  A    between atoms: _55  and  _57
REMARK   27  A    between atoms: _57  and  _58
REMARK   28  A    between atoms: _60  and  _62
REMARK   29  A    between atoms: _62  and  _63
REMARK   30  A    between atoms: _62  and  _65
REMARK   31  A    between atoms: _65  and  _66
REMARK   32  A    between atoms: _66  and  _67
REMARK   33  A    between atoms: _67  and  _68
REMARK   34  A    between atoms: _77  and  _79
REMARK   35  A    between atoms: _79  and  _80
REMARK   36  A    between atoms: _79  and  _82
REMARK   37  A    between atoms: _82  and  _83
REMARK   38  A    between atoms: _88  and  _90
REMARK   39  A    between atoms: _90  and  _91
REMARK   40  A    between atoms: _90  and  _93
REMARK   41  A    between atoms: _93  and  _94
REMARK   42  A    between atoms: _104  and  _106
REMARK   43  A    between atoms: _106  and  _107
REMARK   44  A    between atoms: _110  and  _112
REMARK   45  A    between atoms: _112  and  _113
REMARK   46  A    between atoms: _112  and  _115
REMARK   47  A    between atoms: _115  and  _116
REMARK   48  A    between atoms: _126  and  _128
REMARK   49  A    between atoms: _128  and  _129
REMARK   50  A    between atoms: _128  and  _131
REMARK   51  A    between atoms: _131  and  _132
REMARK   52  A    between atoms: _132  and  _133
REMARK   53  A    between atoms: _138  and  _140
REMARK   54  A    between atoms: _140  and  _141
REMARK   55  A    between atoms: _140  and  _143
REMARK   56  A    between atoms: _143  and  _144
REMARK   57  A    between atoms: _144  and  _145
REMARK   58  A    between atoms: _145  and  _146
REMARK   59  A    between atoms: _146  and  _147
REMARK   60  A    between atoms: _151  and  _153
REMARK   61  A    between atoms: _153  and  _154
REMARK   62  A    between atoms: _153  and  _156
REMARK   63  A    between atoms: _156  and  _157
REMARK   64  A    between atoms: _162  and  _164
REMARK   65  A    between atoms: _164  and  _165
REMARK   66  A    between atoms: _164  and  _167
REMARK   67  A    between atoms: _167  and  _168
REMARK   68  A    between atoms: _168  and  _169
REMARK   69  A    between atoms: _174  and  _176
REMARK   70  A    between atoms: _176  and  _177
REMARK   71  A    between atoms: _176  and  _179
REMARK   72  A    between atoms: _179  and  _180
REMARK   73  A    between atoms: _183  and  _185
REMARK   74  A    between atoms: _185  and  _186
REMARK   75  A    between atoms: _185  and  _188
REMARK   76  A    between atoms: _188  and  _189
REMARK   77  A    between atoms: _189  and  _190
REMARK   78  A    between atoms: _190  and  _191
REMARK   79  A    between atoms: _200  and  _202
REMARK   80  A    between atoms: _202  and  _203
REMARK   81  A    between atoms: _202  and  _205
REMARK   82  A    between atoms: _205  and  _206
REMARK   83  A    between atoms: _216  and  _218
REMARK   84  A    between atoms: _218  and  _219
REMARK   85  A    between atoms: _218  and  _221
REMARK   86  A    between atoms: _221  and  _222
REMARK   87  A    between atoms: _227  and  _229
REMARK   88  A    between atoms: _229  and  _230
REMARK   89  A    between atoms: _229  and  _232
REMARK   90  A    between atoms: _232  and  _233
REMARK   91  A    between atoms: _238  and  _239
REMARK   92  A    between atoms: _241  and  _243
REMARK   93  A    between atoms: _243  and  _244
REMARK   94  A    between atoms: _246  and  _248
REMARK   95  A    between atoms: _248  and  _249
REMARK   96  A    between atoms: _248  and  _251
REMARK   97  A    between atoms: _251  and  _252
REMARK   98  A    between atoms: _255  and  _257
REMARK   99  A    between atoms: _257  and  _258
REMARK  100  A    between atoms: _257  and  _260
REMARK  101  A    between atoms: _260  and  _261
REMARK  102  A    between atoms: _266  and  _267
REMARK  103  A    between atoms: _269  and  _271
REMARK  104  A    between atoms: _271  and  _272
REMARK  105  A    between atoms: _271  and  _274
REMARK  106  A    between atoms: _276  and  _278
REMARK  107  A    between atoms: _278  and  _279
REMARK  108  A    between atoms: _281  and  _283
REMARK  109  A    between atoms: _283  and  _284
REMARK  110  A    between atoms: _283  and  _286
REMARK  111  A    between atoms: _286  and  _287
REMARK  112  A    between atoms: _287  and  _288
REMARK  113  A    between atoms: _288  and  _289
REMARK  114  A    between atoms: _298  and  _300
REMARK  115  A    between atoms: _300  and  _301
REMARK  116  A    between atoms: _300  and  _303
REMARK  117  A    between atoms: _306  and  _308
REMARK  118  A    between atoms: _308  and  _309
REMARK  119  A    between atoms: _308  and  _311
REMARK  120  A    between atoms: _311  and  _312
REMARK  121  A    between atoms: _317  and  _319
REMARK  122  A    between atoms: _319  and  _320
REMARK  123  A    between atoms: _322  and  _324
REMARK  124  A    between atoms: _324  and  _325
REMARK  125  A    between atoms: _324  and  _327
REMARK  126  A    between atoms: _327  and  _328
REMARK  127  A    between atoms: _338  and  _340
REMARK  128  A    between atoms: _340  and  _341
REMARK  129  A    between atoms: _340  and  _343
REMARK  130  A    between atoms: _343  and  _344
REMARK  131  A    between atoms: _346  and  _348
REMARK  132  A    between atoms: _348  and  _349
REMARK  133  A    between atoms: _348  and  _351
REMARK  134  A    between atoms: _353  and  _355
REMARK  135  A    between atoms: _355  and  _356
REMARK  136  A    between atoms: _355  and  _358
REMARK  137  A    between atoms: _358  and  _359
REMARK  138  A    between atoms: _362  and  _364
REMARK  139  A    between atoms: _364  and  _365
REMARK  140  A    between atoms: _364  and  _367
REMARK  141  A    between atoms: _367  and  _368
REMARK  142  A    between atoms: _374  and  _376
REMARK  143  A    between atoms: _376  and  _377
REMARK  144  A    between atoms: _376  and  _379
REMARK  145  A    between atoms: _379  and  _380
REMARK  146  A    between atoms: _385  and  _386
REMARK                            x       y       z     vdW  Elec       q    Type
REMARK                         _______ _______ _______ _____ _____    ______ ____
ROOT
ATOM      1  O   HOH     1      14.964 -21.962  -0.313  0.00  0.00    +0.000 OA
ENDROOT
TORSDOF 0
REMARK  Name = ../refined-set-2016/3ckb/3ckb_pocket.pdb
REMARK  146 active torsions:
REMARK  status: ('A' for Active; 'I' for Inactive)
REMARK    1  A    between atoms: _1  and  _3
REMARK    2  A    between atoms: _3  and  _4
REMARK    3  A    between atoms: _3  and  _6
REMARK    4  A    between atoms: _6  and  _7
REMARK    5  A    between atoms: _7  and  _8
REMARK    6  A    between atoms: _13  and  _15
REMARK    7  A    between atoms: _15  and  _16
REMARK    8  A    between atoms: _15  and  _18
REMARK    9  A    between atoms: _18  and  _19
REMARK   10  A    between atoms: _22  and  _24
REMARK   11  A    between atoms: _24  and  _25
REMARK   12  A    between atoms: _24  and  _27
REMARK   13  A    between atoms: _27  and  _28
REMARK   14  A    between atoms: _28  and  _29
REMARK   15  A    between atoms: _32  and  _34
REMARK   16  A    between atoms: _34  and  _35
REMARK   17  A    between atoms: _37  and  _39
REMARK   18  A    between atoms: _39  and  _40
REMARK   19  A    between atoms: _39  and  _42
REMARK   20  A    between atoms: _42  and  _43
REMARK   21  A    between atoms: _43  and  _44
REMARK   22  A    between atoms: _47  and  _49
REMARK   23  A    between atoms: _49  and  _50
REMARK   24  A    between atoms: _49  and  _52
REMARK   25  A    between atoms: _52  and  _53
REMARK   26  A    between atoms: _55  and  _57
REMARK   27  A    between atoms: _57  and  _58
REMARK   28  A    between atoms: _60  and  _62
REMARK   29  A    between atoms: _62  and  _63
REMARK   30  A    between atoms: _62  and  _65
REMARK   31  A    between atoms: _65  and  _66
REMARK   32  A    between atoms: _66  and  _67
REMARK   33  A    between atoms: _67  and  _68
REMARK   34  A    between atoms: _77  and  _79
REMARK   35  A    between atoms: _79  and  _80
REMARK   36  A    between atoms: _79  and  _82
REMARK   37  A    between atoms: _82  and  _83
REMARK   38  A    between atoms: _88  and  _90
REMARK   39  A    between atoms: _90  and  _91
REMARK   40  A    between atoms: _90  and  _93
REMARK   41  A    between atoms: _93  and  _94
REMARK   42  A    between atoms: _104  and  _106
REMARK   43  A    between atoms: _106  and  _107
REMARK   44  A    between atoms: _110  and  _112
REMARK   45  A    between atoms: _112  and  _113
REMARK   46  A    between atoms: _112  and  _115
REMARK   47  A    between atoms: _115  and  _116
REMARK   48  A    between atoms: _126  and  _128
REMARK   49  A    between atoms: _128  and  _129
REMARK   50  A    between atoms: _128  and  _131
REMARK   51  A    between atoms: _131  and  _132
REMARK   52  A    between atoms: _132  and  _133
REMARK   53  A    between atoms: _138  and  _140
REMARK   54  A    between atoms: _140  and  _141
REMARK   55  A    between atoms: _140  and  _143
REMARK   56  A    between atoms: _143  and  _144
REMARK   57  A    between atoms: _144  and  _145
REMARK   58  A    between atoms: _145  and  _146
REMARK   59  A    between atoms: _146  and  _147
REMARK   60  A    between atoms: _151  and  _153
REMARK   61  A    between atoms: _153  and  _154
REMARK   62  A    between atoms: _153  and  _156
REMARK   63  A    between atoms: _156  and  _157
REMARK   64  A    between atoms: _162  and  _164
REMARK   65  A    between atoms: _164  and  _165
REMARK   66  A    between atoms: _164  and  _167
REMARK   67  A    between atoms: _167  and  _168
REMARK   68  A    between atoms: _168  and  _169
REMARK   69  A    between atoms: _174  and  _176
REMARK   70  A    between atoms: _176  and  _177
REMARK   71  A    between atoms: _176  and  _179
REMARK   72  A    between atoms: _179  and  _180
REMARK   73  A    between atoms: _183  and  _185
REMARK   74  A    between atoms: _185  and  _186
REMARK   75  A    between atoms: _185  and  _188
REMARK   76  A    between atoms: _188  and  _189
REMARK   77  A    between atoms: _189  and  _190
REMARK   78  A    between atoms: _190  and  _191
REMARK   79  A    between atoms: _200  and  _202
REMARK   80  A    between atoms: _202  and  _203
REMARK   81  A    between atoms: _202  and  _205
REMARK   82  A    between atoms: _205  and  _206
REMARK   83  A    between atoms: _216  and  _218
REMARK   84  A    between atoms: _218  and  _219
REMARK   85  A    between atoms: _218  and  _221
REMARK   86  A    between atoms: _221  and  _222
REMARK   87  A    between atoms: _227  and  _229
REMARK   88  A    between atoms: _229  and  _230
REMARK   89  A    between atoms: _229  and  _232
REMARK   90  A    between atoms: _232  and  _233
REMARK   91  A    between atoms: _238  and  _239
REMARK   92  A    between atoms: _241  and  _243
REMARK   93  A    between atoms: _243  and  _244
REMARK   94  A    between atoms: _246  and  _248
REMARK   95  A    between atoms: _248  and  _249
REMARK   96  A    between atoms: _248  and  _251
REMARK   97  A    between atoms: _251  and  _252
REMARK   98  A    between atoms: _255  and  _257
REMARK   99  A    between atoms: _257  and  _258
REMARK  100  A    between atoms: _257  and  _260
REMARK  101  A    between atoms: _260  and  _261
REMARK  102  A    between atoms: _266  and  _267
REMARK  103  A    between atoms: _269  and  _271
REMARK  104  A    between atoms: _271  and  _272
REMARK  105  A    between atoms: _271  and  _274
REMARK  106  A    between atoms: _276  and  _278
REMARK  107  A    between atoms: _278  and  _279
REMARK  108  A    between atoms: _281  and  _283
REMARK  109  A    between atoms: _283  and  _284
REMARK  110  A    between atoms: _283  and  _286
REMARK  111  A    between atoms: _286  and  _287
REMARK  112  A    between atoms: _287  and  _288
REMARK  113  A    between atoms: _288  and  _289
REMARK  114  A    between atoms: _298  and  _300
REMARK  115  A    between atoms: _300  and  _301
REMARK  116  A    between atoms: _300  and  _303
REMARK  117  A    between atoms: _306  and  _308
REMARK  118  A    between atoms: _308  and  _309
REMARK  119  A    between atoms: _308  and  _311
REMARK  120  A    between atoms: _311  and  _312
REMARK  121  A    between atoms: _317  and  _319
REMARK  122  A    between atoms: _319  and  _320
REMARK  123  A    between atoms: _322  and  _324
REMARK  124  A    between atoms: _324  and  _325
REMARK  125  A    between atoms: _324  and  _327
REMARK  126  A    between atoms: _327  and  _328
REMARK  127  A    between atoms: _338  and  _340
REMARK  128  A    between atoms: _340  and  _341
REMARK  129  A    between atoms: _340  and  _343
REMARK  130  A    between atoms: _343  and  _344
REMARK  131  A    between atoms: _346  and  _348
REMARK  132  A    between atoms: _348  and  _349
REMARK  133  A    between atoms: _348  and  _351
REMARK  134  A    between atoms: _353  and  _355
REMARK  135  A    between atoms: _355  and  _356
REMARK  136  A    between atoms: _355  and  _358
REMARK  137  A    between atoms: _358  and  _359
REMARK  138  A    between atoms: _362  and  _364
REMARK  139  A    between atoms: _364  and  _365
REMARK  140  A    between atoms: _364  and  _367
REMARK  141  A    between atoms: _367  and  _368
REMARK  142  A    between atoms: _374  and  _376
REMARK  143  A    between atoms: _376  and  _377
REMARK  144  A    between atoms: _376  and  _379
REMARK  145  A    between atoms: _379  and  _380
REMARK  146  A    between atoms: _385  and  _386
REMARK                            x       y       z     vdW  Elec       q    Type
REMARK                         _______ _______ _______ _____ _____    ______ ____
ROOT
ATOM      1  O   HOH     1      17.249 -18.112   1.877  0.00  0.00    +0.000 OA
ENDROOT
TORSDOF 0
