REMARK  Name = ../refined-set-2016/3wha/3wha_pocket.pdb
REMARK  221 active torsions:
REMARK  status: ('A' for Active; 'I' for Inactive)
REMARK    1  A    between atoms: _1  and  _3
REMARK    2  A    between atoms: _3  and  _4
REMARK    3  A    between atoms: _3  and  _6
REMARK    4  A    between atoms: _6  and  _7
REMARK    5  A    between atoms: _10  and  _12
REMARK    6  A    between atoms: _12  and  _13
REMARK    7  A    between atoms: _12  and  _15
REMARK    8  A    between atoms: _15  and  _16
REMARK    9  A    between atoms: _19  and  _21
REMARK   10  A    between atoms: _21  and  _22
REMARK   11  A    between atoms: _21  and  _24
REMARK   12  A    between atoms: _24  and  _25
REMARK   13  A    between atoms: _25  and  _26
REMARK   14  A    between atoms: _29  and  _31
REMARK   15  A    between atoms: _31  and  _32
REMARK   16  A    between atoms: _31  and  _34
REMARK   17  A    between atoms: _34  and  _35
REMARK   18  A    between atoms: _38  and  _40
REMARK   19  A    between atoms: _40  and  _41
REMARK   20  A    between atoms: _40  and  _43
REMARK   21  A    between atoms: _43  and  _44
REMARK   22  A    between atoms: _47  and  _49
REMARK   23  A    between atoms: _49  and  _50
REMARK   24  A    between atoms: _49  and  _52
REMARK   25  A    between atoms: _52  and  _53
REMARK   26  A    between atoms: _55  and  _57
REMARK   27  A    between atoms: _57  and  _58
REMARK   28  A    between atoms: _57  and  _60
REMARK   29  A    between atoms: _60  and  _61
REMARK   30  A    between atoms: _66  and  _68
REMARK   31  A    between atoms: _68  and  _69
REMARK   32  A    between atoms: _68  and  _71
REMARK   33  A    between atoms: _71  and  _72
REMARK   34  A    between atoms: _74  and  _76
REMARK   35  A    between atoms: _76  and  _77
REMARK   36  A    between atoms: _76  and  _79
REMARK   37  A    between atoms: _79  and  _80
REMARK   38  A    between atoms: _82  and  _84
REMARK   39  A    between atoms: _84  and  _85
REMARK   40  A    between atoms: _84  and  _87
REMARK   41  A    between atoms: _87  and  _88
REMARK   42  A    between atoms: _91  and  _93
REMARK   43  A    between atoms: _93  and  _94
REMARK   44  A    between atoms: _97  and  _99
REMARK   45  A    between atoms: _99  and  _100
REMARK   46  A    between atoms: _99  and  _102
REMARK   47  A    between atoms: _102  and  _103
REMARK   48  A    between atoms: _106  and  _108
REMARK   49  A    between atoms: _108  and  _109
REMARK   50  A    between atoms: _108  and  _111
REMARK   51  A    between atoms: _111  and  _112
REMARK   52  A    between atoms: _115  and  _117
REMARK   53  A    between atoms: _117  and  _118
REMARK   54  A    between atoms: _117  and  _120
REMARK   55  A    between atoms: _120  and  _121
REMARK   56  A    between atoms: _121  and  _122
REMARK   57  A    between atoms: _122  and  _123
REMARK   58  A    between atoms: _123  and  _124
REMARK   59  A    between atoms: _128  and  _130
REMARK   60  A    between atoms: _130  and  _131
REMARK   61  A    between atoms: _130  and  _133
REMARK   62  A    between atoms: _133  and  _134
REMARK   63  A    between atoms: _137  and  _139
REMARK   64  A    between atoms: _139  and  _140
REMARK   65  A    between atoms: _139  and  _142
REMARK   66  A    between atoms: _142  and  _143
REMARK   67  A    between atoms: _143  and  _144
REMARK   68  A    between atoms: _147  and  _149
REMARK   69  A    between atoms: _149  and  _150
REMARK   70  A    between atoms: _149  and  _152
REMARK   71  A    between atoms: _152  and  _153
REMARK   72  A    between atoms: _156  and  _158
REMARK   73  A    between atoms: _158  and  _159
REMARK   74  A    between atoms: _158  and  _161
REMARK   75  A    between atoms: _164  and  _166
REMARK   76  A    between atoms: _166  and  _167
REMARK   77  A    between atoms: _166  and  _169
REMARK   78  A    between atoms: _169  and  _170
REMARK   79  A    between atoms: _173  and  _175
REMARK   80  A    between atoms: _175  and  _176
REMARK   81  A    between atoms: _175  and  _178
REMARK   82  A    between atoms: _178  and  _179
REMARK   83  A    between atoms: _182  and  _184
REMARK   84  A    between atoms: _184  and  _185
REMARK   85  A    between atoms: _187  and  _189
REMARK   86  A    between atoms: _189  and  _190
REMARK   87  A    between atoms: _189  and  _192
REMARK   88  A    between atoms: _192  and  _193
REMARK   89  A    between atoms: _196  and  _198
REMARK   90  A    between atoms: _198  and  _199
REMARK   91  A    between atoms: _201  and  _203
REMARK   92  A    between atoms: _203  and  _204
REMARK   93  A    between atoms: _203  and  _206
REMARK   94  A    between atoms: _206  and  _207
REMARK   95  A    between atoms: _207  and  _208
REMARK   96  A    between atoms: _210  and  _212
REMARK   97  A    between atoms: _212  and  _213
REMARK   98  A    between atoms: _212  and  _215
REMARK   99  A    between atoms: _215  and  _216
REMARK  100  A    between atoms: _219  and  _221
REMARK  101  A    between atoms: _221  and  _222
REMARK  102  A    between atoms: _221  and  _224
REMARK  103  A    between atoms: _224  and  _225
REMARK  104  A    between atoms: _228  and  _230
REMARK  105  A    between atoms: _230  and  _231
REMARK  106  A    between atoms: _230  and  _233
REMARK  107  A    between atoms: _233  and  _234
REMARK  108  A    between atoms: _237  and  _239
REMARK  109  A    between atoms: _239  and  _240
REMARK  110  A    between atoms: _239  and  _242
REMARK  111  A    between atoms: _242  and  _243
REMARK  112  A    between atoms: _248  and  _250
REMARK  113  A    between atoms: _250  and  _251
REMARK  114  A    between atoms: _250  and  _253
REMARK  115  A    between atoms: _253  and  _254
REMARK  116  A    between atoms: _259  and  _261
REMARK  117  A    between atoms: _261  and  _262
REMARK  118  A    between atoms: _261  and  _264
REMARK  119  A    between atoms: _264  and  _265
REMARK  120  A    between atoms: _268  and  _270
REMARK  121  A    between atoms: _270  and  _271
REMARK  122  A    between atoms: _273  and  _275
REMARK  123  A    between atoms: _275  and  _276
REMARK  124  A    between atoms: _275  and  _278
REMARK  125  A    between atoms: _278  and  _279
REMARK  126  A    between atoms: _282  and  _284
REMARK  127  A    between atoms: _284  and  _285
REMARK  128  A    between atoms: _284  and  _287
REMARK  129  A    between atoms: _287  and  _288
REMARK  130  A    between atoms: _291  and  _293
REMARK  131  A    between atoms: _293  and  _294
REMARK  132  A    between atoms: _297  and  _299
REMARK  133  A    between atoms: _299  and  _300
REMARK  134  A    between atoms: _299  and  _302
REMARK  135  A    between atoms: _302  and  _303
REMARK  136  A    between atoms: _303  and  _304
REMARK  137  A    between atoms: _304  and  _305
REMARK  138  A    between atoms: _305  and  _306
REMARK  139  A    between atoms: _310  and  _312
REMARK  140  A    between atoms: _312  and  _313
REMARK  141  A    between atoms: _312  and  _315
REMARK  142  A    between atoms: _315  and  _316
REMARK  143  A    between atoms: _318  and  _320
REMARK  144  A    between atoms: _320  and  _321
REMARK  145  A    between atoms: _323  and  _325
REMARK  146  A    between atoms: _325  and  _326
REMARK  147  A    between atoms: _325  and  _328
REMARK  148  A    between atoms: _328  and  _329
REMARK  149  A    between atoms: _332  and  _334
REMARK  150  A    between atoms: _334  and  _335
REMARK  151  A    between atoms: _334  and  _337
REMARK  152  A    between atoms: _337  and  _338
REMARK  153  A    between atoms: _344  and  _346
REMARK  154  A    between atoms: _346  and  _347
REMARK  155  A    between atoms: _349  and  _351
REMARK  156  A    between atoms: _351  and  _352
REMARK  157  A    between atoms: _351  and  _354
REMARK  158  A    between atoms: _357  and  _359
REMARK  159  A    between atoms: _359  and  _360
REMARK  160  A    between atoms: _362  and  _364
REMARK  161  A    between atoms: _364  and  _365
REMARK  162  A    between atoms: _364  and  _367
REMARK  163  A    between atoms: _367  and  _368
REMARK  164  A    between atoms: _374  and  _376
REMARK  165  A    between atoms: _376  and  _377
REMARK  166  A    between atoms: _376  and  _379
REMARK  167  A    between atoms: _379  and  _380
REMARK  168  A    between atoms: _385  and  _386
REMARK  169  A    between atoms: _388  and  _390
REMARK  170  A    between atoms: _390  and  _391
REMARK  171  A    between atoms: _390  and  _393
REMARK  172  A    between atoms: _393  and  _394
REMARK  173  A    between atoms: _396  and  _398
REMARK  174  A    between atoms: _398  and  _399
REMARK  175  A    between atoms: _398  and  _401
REMARK  176  A    between atoms: _404  and  _406
REMARK  177  A    between atoms: _406  and  _407
REMARK  178  A    between atoms: _406  and  _409
REMARK  179  A    between atoms: _409  and  _410
REMARK  180  A    between atoms: _413  and  _415
REMARK  181  A    between atoms: _415  and  _416
REMARK  182  A    between atoms: _415  and  _418
REMARK  183  A    between atoms: _421  and  _423
REMARK  184  A    between atoms: _423  and  _424
REMARK  185  A    between atoms: _423  and  _426
REMARK  186  A    between atoms: _426  and  _427
REMARK  187  A    between atoms: _430  and  _432
REMARK  188  A    between atoms: _432  and  _433
REMARK  189  A    between atoms: _432  and  _435
REMARK  190  A    between atoms: _435  and  _436
REMARK  191  A    between atoms: _439  and  _441
REMARK  192  A    between atoms: _441  and  _442
REMARK  193  A    between atoms: _441  and  _444
REMARK  194  A    between atoms: _444  and  _445
REMARK  195  A    between atoms: _445  and  _446
REMARK  196  A    between atoms: _446  and  _447
REMARK  197  A    between atoms: _447  and  _448
REMARK  198  A    between atoms: _452  and  _454
REMARK  199  A    between atoms: _454  and  _455
REMARK  200  A    between atoms: _454  and  _457
REMARK  201  A    between atoms: _457  and  _458
REMARK  202  A    between atoms: _463  and  _465
REMARK  203  A    between atoms: _465  and  _466
REMARK  204  A    between atoms: _465  and  _468
REMARK  205  A    between atoms: _468  and  _469
REMARK  206  A    between atoms: _479  and  _481
REMARK  207  A    between atoms: _481  and  _482
REMARK  208  A    between atoms: _484  and  _486
REMARK  209  A    between atoms: _486  and  _487
REMARK  210  A    between atoms: _486  and  _489
REMARK  211  A    between atoms: _489  and  _490
REMARK  212  A    between atoms: _493  and  _495
REMARK  213  A    between atoms: _495  and  _496
REMARK  214  A    between atoms: _495  and  _498
REMARK  215  A    between atoms: _498  and  _499
REMARK  216  A    between atoms: _499  and  _500
REMARK  217  A    between atoms: _500  and  _501
REMARK  218  A    between atoms: _501  and  _502
REMARK  219  A    between atoms: _506  and  _508
REMARK  220  A    between atoms: _508  and  _509
REMARK  221  A    between atoms: _508  and  _511
REMARK                            x       y       z     vdW  Elec       q    Type
REMARK                         _______ _______ _______ _____ _____    ______ ____
ROOT
ATOM      1  CA  ILE A   1     -17.010  24.966 -29.331  0.00  0.00    +0.133 C 
ENDROOT
BRANCH   1   2
ATOM      2  N   ILE A   1     -16.745  24.593 -30.710  0.00  0.00    -0.239 NA
ATOM      3  H   ILE A   1     -16.601  23.594 -30.960  0.00  0.00    +0.142 HD
ENDBRANCH   1   2
BRANCH   1   4
ATOM      4  CB  ILE A   1     -17.396  23.742 -28.502  0.00  0.00    +0.023 C 
ATOM      5  CG2 ILE A   1     -17.547  24.110 -26.995  0.00  0.00    +0.002 C 
BRANCH   4   6
ATOM      6  CG1 ILE A   1     -18.683  23.083 -29.047  0.00  0.00    +0.002 C 
ATOM      7  CD1 ILE A   1     -20.046  23.839 -28.873  0.00  0.00    +0.000 C 
ENDBRANCH   4   6
ENDBRANCH   1   4
BRANCH   1   8
ATOM      8  C   ILE A   1     -15.807  25.667 -28.750  0.00  0.00    +0.224 C 
ATOM      9  O   ILE A   1     -15.974  26.680 -28.057  0.00  0.00    -0.287 OA
ENDBRANCH   1   8
TORSDOF 4
REMARK  Name = ../refined-set-2016/3wha/3wha_pocket.pdb
REMARK  221 active torsions:
REMARK  status: ('A' for Active; 'I' for Inactive)
REMARK    1  A    between atoms: _1  and  _3
REMARK    2  A    between atoms: _3  and  _4
REMARK    3  A    between atoms: _3  and  _6
REMARK    4  A    between atoms: _6  and  _7
REMARK    5  A    between atoms: _10  and  _12
REMARK    6  A    between atoms: _12  and  _13
REMARK    7  A    between atoms: _12  and  _15
REMARK    8  A    between atoms: _15  and  _16
REMARK    9  A    between atoms: _19  and  _21
REMARK   10  A    between atoms: _21  and  _22
REMARK   11  A    between atoms: _21  and  _24
REMARK   12  A    between atoms: _24  and  _25
REMARK   13  A    between atoms: _25  and  _26
REMARK   14  A    between atoms: _29  and  _31
REMARK   15  A    between atoms: _31  and  _32
REMARK   16  A    between atoms: _31  and  _34
REMARK   17  A    between atoms: _34  and  _35
REMARK   18  A    between atoms: _38  and  _40
REMARK   19  A    between atoms: _40  and  _41
REMARK   20  A    between atoms: _40  and  _43
REMARK   21  A    between atoms: _43  and  _44
REMARK   22  A    between atoms: _47  and  _49
REMARK   23  A    between atoms: _49  and  _50
REMARK   24  A    between atoms: _49  and  _52
REMARK   25  A    between atoms: _52  and  _53
REMARK   26  A    between atoms: _55  and  _57
REMARK   27  A    between atoms: _57  and  _58
REMARK   28  A    between atoms: _57  and  _60
REMARK   29  A    between atoms: _60  and  _61
REMARK   30  A    between atoms: _66  and  _68
REMARK   31  A    between atoms: _68  and  _69
REMARK   32  A    between atoms: _68  and  _71
REMARK   33  A    between atoms: _71  and  _72
REMARK   34  A    between atoms: _74  and  _76
REMARK   35  A    between atoms: _76  and  _77
REMARK   36  A    between atoms: _76  and  _79
REMARK   37  A    between atoms: _79  and  _80
REMARK   38  A    between atoms: _82  and  _84
REMARK   39  A    between atoms: _84  and  _85
REMARK   40  A    between atoms: _84  and  _87
REMARK   41  A    between atoms: _87  and  _88
REMARK   42  A    between atoms: _91  and  _93
REMARK   43  A    between atoms: _93  and  _94
REMARK   44  A    between atoms: _97  and  _99
REMARK   45  A    between atoms: _99  and  _100
REMARK   46  A    between atoms: _99  and  _102
REMARK   47  A    between atoms: _102  and  _103
REMARK   48  A    between atoms: _106  and  _108
REMARK   49  A    between atoms: _108  and  _109
REMARK   50  A    between atoms: _108  and  _111
REMARK   51  A    between atoms: _111  and  _112
REMARK   52  A    between atoms: _115  and  _117
REMARK   53  A    between atoms: _117  and  _118
REMARK   54  A    between atoms: _117  and  _120
REMARK   55  A    between atoms: _120  and  _121
REMARK   56  A    between atoms: _121  and  _122
REMARK   57  A    between atoms: _122  and  _123
REMARK   58  A    between atoms: _123  and  _124
REMARK   59  A    between atoms: _128  and  _130
REMARK   60  A    between atoms: _130  and  _131
REMARK   61  A    between atoms: _130  and  _133
REMARK   62  A    between atoms: _133  and  _134
REMARK   63  A    between atoms: _137  and  _139
REMARK   64  A    between atoms: _139  and  _140
REMARK   65  A    between atoms: _139  and  _142
REMARK   66  A    between atoms: _142  and  _143
REMARK   67  A    between atoms: _143  and  _144
REMARK   68  A    between atoms: _147  and  _149
REMARK   69  A    between atoms: _149  and  _150
REMARK   70  A    between atoms: _149  and  _152
REMARK   71  A    between atoms: _152  and  _153
REMARK   72  A    between atoms: _156  and  _158
REMARK   73  A    between atoms: _158  and  _159
REMARK   74  A    between atoms: _158  and  _161
REMARK   75  A    between atoms: _164  and  _166
REMARK   76  A    between atoms: _166  and  _167
REMARK   77  A    between atoms: _166  and  _169
REMARK   78  A    between atoms: _169  and  _170
REMARK   79  A    between atoms: _173  and  _175
REMARK   80  A    between atoms: _175  and  _176
REMARK   81  A    between atoms: _175  and  _178
REMARK   82  A    between atoms: _178  and  _179
REMARK   83  A    between atoms: _182  and  _184
REMARK   84  A    between atoms: _184  and  _185
REMARK   85  A    between atoms: _187  and  _189
REMARK   86  A    between atoms: _189  and  _190
REMARK   87  A    between atoms: _189  and  _192
REMARK   88  A    between atoms: _192  and  _193
REMARK   89  A    between atoms: _196  and  _198
REMARK   90  A    between atoms: _198  and  _199
REMARK   91  A    between atoms: _201  and  _203
REMARK   92  A    between atoms: _203  and  _204
REMARK   93  A    between atoms: _203  and  _206
REMARK   94  A    between atoms: _206  and  _207
REMARK   95  A    between atoms: _207  and  _208
REMARK   96  A    between atoms: _210  and  _212
REMARK   97  A    between atoms: _212  and  _213
REMARK   98  A    between atoms: _212  and  _215
REMARK   99  A    between atoms: _215  and  _216
REMARK  100  A    between atoms: _219  and  _221
REMARK  101  A    between atoms: _221  and  _222
REMARK  102  A    between atoms: _221  and  _224
REMARK  103  A    between atoms: _224  and  _225
REMARK  104  A    between atoms: _228  and  _230
REMARK  105  A    between atoms: _230  and  _231
REMARK  106  A    between atoms: _230  and  _233
REMARK  107  A    between atoms: _233  and  _234
REMARK  108  A    between atoms: _237  and  _239
REMARK  109  A    between atoms: _239  and  _240
REMARK  110  A    between atoms: _239  and  _242
REMARK  111  A    between atoms: _242  and  _243
REMARK  112  A    between atoms: _248  and  _250
REMARK  113  A    between atoms: _250  and  _251
REMARK  114  A    between atoms: _250  and  _253
REMARK  115  A    between atoms: _253  and  _254
REMARK  116  A    between atoms: _259  and  _261
REMARK  117  A    between atoms: _261  and  _262
REMARK  118  A    between atoms: _261  and  _264
REMARK  119  A    between atoms: _264  and  _265
REMARK  120  A    between atoms: _268  and  _270
REMARK  121  A    between atoms: _270  and  _271
REMARK  122  A    between atoms: _273  and  _275
REMARK  123  A    between atoms: _275  and  _276
REMARK  124  A    between atoms: _275  and  _278
REMARK  125  A    between atoms: _278  and  _279
REMARK  126  A    between atoms: _282  and  _284
REMARK  127  A    between atoms: _284  and  _285
REMARK  128  A    between atoms: _284  and  _287
REMARK  129  A    between atoms: _287  and  _288
REMARK  130  A    between atoms: _291  and  _293
REMARK  131  A    between atoms: _293  and  _294
REMARK  132  A    between atoms: _297  and  _299
REMARK  133  A    between atoms: _299  and  _300
REMARK  134  A    between atoms: _299  and  _302
REMARK  135  A    between atoms: _302  and  _303
REMARK  136  A    between atoms: _303  and  _304
REMARK  137  A    between atoms: _304  and  _305
REMARK  138  A    between atoms: _305  and  _306
REMARK  139  A    between atoms: _310  and  _312
REMARK  140  A    between atoms: _312  and  _313
REMARK  141  A    between atoms: _312  and  _315
REMARK  142  A    between atoms: _315  and  _316
REMARK  143  A    between atoms: _318  and  _320
REMARK  144  A    between atoms: _320  and  _321
REMARK  145  A    between atoms: _323  and  _325
REMARK  146  A    between atoms: _325  and  _326
REMARK  147  A    between atoms: _325  and  _328
REMARK  148  A    between atoms: _328  and  _329
REMARK  149  A    between atoms: _332  and  _334
REMARK  150  A    between atoms: _334  and  _335
REMARK  151  A    between atoms: _334  and  _337
REMARK  152  A    between atoms: _337  and  _338
REMARK  153  A    between atoms: _344  and  _346
REMARK  154  A    between atoms: _346  and  _347
REMARK  155  A    between atoms: _349  and  _351
REMARK  156  A    between atoms: _351  and  _352
REMARK  157  A    between atoms: _351  and  _354
REMARK  158  A    between atoms: _357  and  _359
REMARK  159  A    between atoms: _359  and  _360
REMARK  160  A    between atoms: _362  and  _364
REMARK  161  A    between atoms: _364  and  _365
REMARK  162  A    between atoms: _364  and  _367
REMARK  163  A    between atoms: _367  and  _368
REMARK  164  A    between atoms: _374  and  _376
REMARK  165  A    between atoms: _376  and  _377
REMARK  166  A    between atoms: _376  and  _379
REMARK  167  A    between atoms: _379  and  _380
REMARK  168  A    between atoms: _385  and  _386
REMARK  169  A    between atoms: _388  and  _390
REMARK  170  A    between atoms: _390  and  _391
REMARK  171  A    between atoms: _390  and  _393
REMARK  172  A    between atoms: _393  and  _394
REMARK  173  A    between atoms: _396  and  _398
REMARK  174  A    between atoms: _398  and  _399
REMARK  175  A    between atoms: _398  and  _401
REMARK  176  A    between atoms: _404  and  _406
REMARK  177  A    between atoms: _406  and  _407
REMARK  178  A    between atoms: _406  and  _409
REMARK  179  A    between atoms: _409  and  _410
REMARK  180  A    between atoms: _413  and  _415
REMARK  181  A    between atoms: _415  and  _416
REMARK  182  A    between atoms: _415  and  _418
REMARK  183  A    between atoms: _421  and  _423
REMARK  184  A    between atoms: _423  and  _424
REMARK  185  A    between atoms: _423  and  _426
REMARK  186  A    between atoms: _426  and  _427
REMARK  187  A    between atoms: _430  and  _432
REMARK  188  A    between atoms: _432  and  _433
REMARK  189  A    between atoms: _432  and  _435
REMARK  190  A    between atoms: _435  and  _436
REMARK  191  A    between atoms: _439  and  _441
REMARK  192  A    between atoms: _441  and  _442
REMARK  193  A    between atoms: _441  and  _444
REMARK  194  A    between atoms: _444  and  _445
REMARK  195  A    between atoms: _445  and  _446
REMARK  196  A    between atoms: _446  and  _447
REMARK  197  A    between atoms: _447  and  _448
REMARK  198  A    between atoms: _452  and  _454
REMARK  199  A    between atoms: _454  and  _455
REMARK  200  A    between atoms: _454  and  _457
REMARK  201  A    between atoms: _457  and  _458
REMARK  202  A    between atoms: _463  and  _465
REMARK  203  A    between atoms: _465  and  _466
REMARK  204  A    between atoms: _465  and  _468
REMARK  205  A    between atoms: _468  and  _469
REMARK  206  A    between atoms: _479  and  _481
REMARK  207  A    between atoms: _481  and  _482
REMARK  208  A    between atoms: _484  and  _486
REMARK  209  A    between atoms: _486  and  _487
REMARK  210  A    between atoms: _486  and  _489
REMARK  211  A    between atoms: _489  and  _490
REMARK  212  A    between atoms: _493  and  _495
REMARK  213  A    between atoms: _495  and  _496
REMARK  214  A    between atoms: _495  and  _498
REMARK  215  A    between atoms: _498  and  _499
REMARK  216  A    between atoms: _499  and  _500
REMARK  217  A    between atoms: _500  and  _501
REMARK  218  A    between atoms: _501  and  _502
REMARK  219  A    between atoms: _506  and  _508
REMARK  220  A    between atoms: _508  and  _509
REMARK  221  A    between atoms: _508  and  _511
REMARK                            x       y       z     vdW  Elec       q    Type
REMARK                         _______ _______ _______ _____ _____    ______ ____
ROOT
ATOM      1  CA  LEU A   1     -17.084  29.858 -29.384  0.00  0.00    +0.133 C 
ENDROOT
BRANCH   1   2
ATOM      2  N   LEU A   1     -16.027  29.117 -30.077  0.00  0.00    -0.239 NA
ATOM      3  H   LEU A   1     -16.179  28.115 -30.309  0.00  0.00    +0.142 HD
ENDBRANCH   1   2
BRANCH   1   4
ATOM      4  C   LEU A   1     -16.594  30.344 -28.029  0.00  0.00    +0.224 C 
ATOM      5  O   LEU A   1     -16.736  31.511 -27.683  0.00  0.00    -0.287 OA
ENDBRANCH   1   4
BRANCH   1   6
ATOM      6  CB  LEU A   1     -18.272  28.916 -29.191  0.00  0.00    +0.025 C 
BRANCH   6   7
ATOM      7  CG  LEU A   1     -19.398  29.451 -28.301  0.00  0.00    +0.002 C 
ATOM      8  CD2 LEU A   1     -20.404  28.369 -28.012  0.00  0.00    +0.000 C 
ATOM      9  CD1 LEU A   1     -20.032  30.693 -28.902  0.00  0.00    +0.000 C 
ENDBRANCH   6   7
ENDBRANCH   1   6
TORSDOF 4
REMARK  Name = ../refined-set-2016/3wha/3wha_pocket.pdb
REMARK  221 active torsions:
REMARK  status: ('A' for Active; 'I' for Inactive)
REMARK    1  A    between atoms: _1  and  _3
REMARK    2  A    between atoms: _3  and  _4
REMARK    3  A    between atoms: _3  and  _6
REMARK    4  A    between atoms: _6  and  _7
REMARK    5  A    between atoms: _10  and  _12
REMARK    6  A    between atoms: _12  and  _13
REMARK    7  A    between atoms: _12  and  _15
REMARK    8  A    between atoms: _15  and  _16
REMARK    9  A    between atoms: _19  and  _21
REMARK   10  A    between atoms: _21  and  _22
REMARK   11  A    between atoms: _21  and  _24
REMARK   12  A    between atoms: _24  and  _25
REMARK   13  A    between atoms: _25  and  _26
REMARK   14  A    between atoms: _29  and  _31
REMARK   15  A    between atoms: _31  and  _32
REMARK   16  A    between atoms: _31  and  _34
REMARK   17  A    between atoms: _34  and  _35
REMARK   18  A    between atoms: _38  and  _40
REMARK   19  A    between atoms: _40  and  _41
REMARK   20  A    between atoms: _40  and  _43
REMARK   21  A    between atoms: _43  and  _44
REMARK   22  A    between atoms: _47  and  _49
REMARK   23  A    between atoms: _49  and  _50
REMARK   24  A    between atoms: _49  and  _52
REMARK   25  A    between atoms: _52  and  _53
REMARK   26  A    between atoms: _55  and  _57
REMARK   27  A    between atoms: _57  and  _58
REMARK   28  A    between atoms: _57  and  _60
REMARK   29  A    between atoms: _60  and  _61
REMARK   30  A    between atoms: _66  and  _68
REMARK   31  A    between atoms: _68  and  _69
REMARK   32  A    between atoms: _68  and  _71
REMARK   33  A    between atoms: _71  and  _72
REMARK   34  A    between atoms: _74  and  _76
REMARK   35  A    between atoms: _76  and  _77
REMARK   36  A    between atoms: _76  and  _79
REMARK   37  A    between atoms: _79  and  _80
REMARK   38  A    between atoms: _82  and  _84
REMARK   39  A    between atoms: _84  and  _85
REMARK   40  A    between atoms: _84  and  _87
REMARK   41  A    between atoms: _87  and  _88
REMARK   42  A    between atoms: _91  and  _93
REMARK   43  A    between atoms: _93  and  _94
REMARK   44  A    between atoms: _97  and  _99
REMARK   45  A    between atoms: _99  and  _100
REMARK   46  A    between atoms: _99  and  _102
REMARK   47  A    between atoms: _102  and  _103
REMARK   48  A    between atoms: _106  and  _108
REMARK   49  A    between atoms: _108  and  _109
REMARK   50  A    between atoms: _108  and  _111
REMARK   51  A    between atoms: _111  and  _112
REMARK   52  A    between atoms: _115  and  _117
REMARK   53  A    between atoms: _117  and  _118
REMARK   54  A    between atoms: _117  and  _120
REMARK   55  A    between atoms: _120  and  _121
REMARK   56  A    between atoms: _121  and  _122
REMARK   57  A    between atoms: _122  and  _123
REMARK   58  A    between atoms: _123  and  _124
REMARK   59  A    between atoms: _128  and  _130
REMARK   60  A    between atoms: _130  and  _131
REMARK   61  A    between atoms: _130  and  _133
REMARK   62  A    between atoms: _133  and  _134
REMARK   63  A    between atoms: _137  and  _139
REMARK   64  A    between atoms: _139  and  _140
REMARK   65  A    between atoms: _139  and  _142
REMARK   66  A    between atoms: _142  and  _143
REMARK   67  A    between atoms: _143  and  _144
REMARK   68  A    between atoms: _147  and  _149
REMARK   69  A    between atoms: _149  and  _150
REMARK   70  A    between atoms: _149  and  _152
REMARK   71  A    between atoms: _152  and  _153
REMARK   72  A    between atoms: _156  and  _158
REMARK   73  A    between atoms: _158  and  _159
REMARK   74  A    between atoms: _158  and  _161
REMARK   75  A    between atoms: _164  and  _166
REMARK   76  A    between atoms: _166  and  _167
REMARK   77  A    between atoms: _166  and  _169
REMARK   78  A    between atoms: _169  and  _170
REMARK   79  A    between atoms: _173  and  _175
REMARK   80  A    between atoms: _175  and  _176
REMARK   81  A    between atoms: _175  and  _178
REMARK   82  A    between atoms: _178  and  _179
REMARK   83  A    between atoms: _182  and  _184
REMARK   84  A    between atoms: _184  and  _185
REMARK   85  A    between atoms: _187  and  _189
REMARK   86  A    between atoms: _189  and  _190
REMARK   87  A    between atoms: _189  and  _192
REMARK   88  A    between atoms: _192  and  _193
REMARK   89  A    between atoms: _196  and  _198
REMARK   90  A    between atoms: _198  and  _199
REMARK   91  A    between atoms: _201  and  _203
REMARK   92  A    between atoms: _203  and  _204
REMARK   93  A    between atoms: _203  and  _206
REMARK   94  A    between atoms: _206  and  _207
REMARK   95  A    between atoms: _207  and  _208
REMARK   96  A    between atoms: _210  and  _212
REMARK   97  A    between atoms: _212  and  _213
REMARK   98  A    between atoms: _212  and  _215
REMARK   99  A    between atoms: _215  and  _216
REMARK  100  A    between atoms: _219  and  _221
REMARK  101  A    between atoms: _221  and  _222
REMARK  102  A    between atoms: _221  and  _224
REMARK  103  A    between atoms: _224  and  _225
REMARK  104  A    between atoms: _228  and  _230
REMARK  105  A    between atoms: _230  and  _231
REMARK  106  A    between atoms: _230  and  _233
REMARK  107  A    between atoms: _233  and  _234
REMARK  108  A    between atoms: _237  and  _239
REMARK  109  A    between atoms: _239  and  _240
REMARK  110  A    between atoms: _239  and  _242
REMARK  111  A    between atoms: _242  and  _243
REMARK  112  A    between atoms: _248  and  _250
REMARK  113  A    between atoms: _250  and  _251
REMARK  114  A    between atoms: _250  and  _253
REMARK  115  A    between atoms: _253  and  _254
REMARK  116  A    between atoms: _259  and  _261
REMARK  117  A    between atoms: _261  and  _262
REMARK  118  A    between atoms: _261  and  _264
REMARK  119  A    between atoms: _264  and  _265
REMARK  120  A    between atoms: _268  and  _270
REMARK  121  A    between atoms: _270  and  _271
REMARK  122  A    between atoms: _273  and  _275
REMARK  123  A    between atoms: _275  and  _276
REMARK  124  A    between atoms: _275  and  _278
REMARK  125  A    between atoms: _278  and  _279
REMARK  126  A    between atoms: _282  and  _284
REMARK  127  A    between atoms: _284  and  _285
REMARK  128  A    between atoms: _284  and  _287
REMARK  129  A    between atoms: _287  and  _288
REMARK  130  A    between atoms: _291  and  _293
REMARK  131  A    between atoms: _293  and  _294
REMARK  132  A    between atoms: _297  and  _299
REMARK  133  A    between atoms: _299  and  _300
REMARK  134  A    between atoms: _299  and  _302
REMARK  135  A    between atoms: _302  and  _303
REMARK  136  A    between atoms: _303  and  _304
REMARK  137  A    between atoms: _304  and  _305
REMARK  138  A    between atoms: _305  and  _306
REMARK  139  A    between atoms: _310  and  _312
REMARK  140  A    between atoms: _312  and  _313
REMARK  141  A    between atoms: _312  and  _315
REMARK  142  A    between atoms: _315  and  _316
REMARK  143  A    between atoms: _318  and  _320
REMARK  144  A    between atoms: _320  and  _321
REMARK  145  A    between atoms: _323  and  _325
REMARK  146  A    between atoms: _325  and  _326
REMARK  147  A    between atoms: _325  and  _328
REMARK  148  A    between atoms: _328  and  _329
REMARK  149  A    between atoms: _332  and  _334
REMARK  150  A    between atoms: _334  and  _335
REMARK  151  A    between atoms: _334  and  _337
REMARK  152  A    between atoms: _337  and  _338
REMARK  153  A    between atoms: _344  and  _346
REMARK  154  A    between atoms: _346  and  _347
REMARK  155  A    between atoms: _349  and  _351
REMARK  156  A    between atoms: _351  and  _352
REMARK  157  A    between atoms: _351  and  _354
REMARK  158  A    between atoms: _357  and  _359
REMARK  159  A    between atoms: _359  and  _360
REMARK  160  A    between atoms: _362  and  _364
REMARK  161  A    between atoms: _364  and  _365
REMARK  162  A    between atoms: _364  and  _367
REMARK  163  A    between atoms: _367  and  _368
REMARK  164  A    between atoms: _374  and  _376
REMARK  165  A    between atoms: _376  and  _377
REMARK  166  A    between atoms: _376  and  _379
REMARK  167  A    between atoms: _379  and  _380
REMARK  168  A    between atoms: _385  and  _386
REMARK  169  A    between atoms: _388  and  _390
REMARK  170  A    between atoms: _390  and  _391
REMARK  171  A    between atoms: _390  and  _393
REMARK  172  A    between atoms: _393  and  _394
REMARK  173  A    between atoms: _396  and  _398
REMARK  174  A    between atoms: _398  and  _399
REMARK  175  A    between atoms: _398  and  _401
REMARK  176  A    between atoms: _404  and  _406
REMARK  177  A    between atoms: _406  and  _407
REMARK  178  A    between atoms: _406  and  _409
REMARK  179  A    between atoms: _409  and  _410
REMARK  180  A    between atoms: _413  and  _415
REMARK  181  A    between atoms: _415  and  _416
REMARK  182  A    between atoms: _415  and  _418
REMARK  183  A    between atoms: _421  and  _423
REMARK  184  A    between atoms: _423  and  _424
REMARK  185  A    between atoms: _423  and  _426
REMARK  186  A    between atoms: _426  and  _427
REMARK  187  A    between atoms: _430  and  _432
REMARK  188  A    between atoms: _432  and  _433
REMARK  189  A    between atoms: _432  and  _435
REMARK  190  A    between atoms: _435  and  _436
REMARK  191  A    between atoms: _439  and  _441
REMARK  192  A    between atoms: _441  and  _442
REMARK  193  A    between atoms: _441  and  _444
REMARK  194  A    between atoms: _444  and  _445
REMARK  195  A    between atoms: _445  and  _446
REMARK  196  A    between atoms: _446  and  _447
REMARK  197  A    between atoms: _447  and  _448
REMARK  198  A    between atoms: _452  and  _454
REMARK  199  A    between atoms: _454  and  _455
REMARK  200  A    between atoms: _454  and  _457
REMARK  201  A    between atoms: _457  and  _458
REMARK  202  A    between atoms: _463  and  _465
REMARK  203  A    between atoms: _465  and  _466
REMARK  204  A    between atoms: _465  and  _468
REMARK  205  A    between atoms: _468  and  _469
REMARK  206  A    between atoms: _479  and  _481
REMARK  207  A    between atoms: _481  and  _482
REMARK  208  A    between atoms: _484  and  _486
REMARK  209  A    between atoms: _486  and  _487
REMARK  210  A    between atoms: _486  and  _489
REMARK  211  A    between atoms: _489  and  _490
REMARK  212  A    between atoms: _493  and  _495
REMARK  213  A    between atoms: _495  and  _496
REMARK  214  A    between atoms: _495  and  _498
REMARK  215  A    between atoms: _498  and  _499
REMARK  216  A    between atoms: _499  and  _500
REMARK  217  A    between atoms: _500  and  _501
REMARK  218  A    between atoms: _501  and  _502
REMARK  219  A    between atoms: _506  and  _508
REMARK  220  A    between atoms: _508  and  _509
REMARK  221  A    between atoms: _508  and  _511
REMARK                            x       y       z     vdW  Elec       q    Type
REMARK                         _______ _______ _______ _____ _____    ______ ____
ROOT
ATOM      1  CA  SER A   7     -35.752  25.913 -16.144  0.00  0.00    +0.178 C 
ENDROOT
BRANCH   1   2
ATOM      2  C   SER A   7     -36.101  24.858 -17.202  0.00  0.00    +0.243 C 
ATOM      3  O   SER A   7     -37.048  24.084 -17.021  0.00  0.00    -0.273 OA
ATOM      4  N   ASP A   8     -35.353  24.810 -18.303  0.00  0.00    -0.296 N 
ATOM      5  H   ASP A   8     -34.576  25.491 -18.423  0.00  0.00    +0.150 HD
BRANCH   4   6
ATOM      6  CA  ASP A   8     -35.603  23.826 -19.337  0.00  0.00    +0.160 C 
BRANCH   6   7
ATOM      7  C   ASP A   8     -35.433  22.409 -18.825  0.00  0.00    +0.241 C 
ATOM      8  N   ALA A   9     -34.393  22.170 -17.982  0.00  0.00    -0.297 N 
ATOM      9  H   ALA A   9     -33.758  22.954 -17.731  0.00  0.00    +0.150 HD
ATOM     10  O   ASP A   8     -36.233  21.531 -19.174  0.00  0.00    -0.273 OA
BRANCH   8  11
ATOM     11  CA  ALA A   9     -34.138  20.840 -17.415  0.00  0.00    +0.149 C 
ATOM     12  CB  ALA A   9     -32.798  20.859 -16.690  0.00  0.00    +0.031 C 
BRANCH  11  13
ATOM     13  C   ALA A   9     -35.252  20.434 -16.430  0.00  0.00    +0.241 C 
ATOM     14  N   LEU A  10     -35.837  21.410 -15.743  0.00  0.00    -0.297 N 
ATOM     15  H   LEU A  10     -35.479  22.379 -15.861  0.00  0.00    +0.150 HD
ATOM     16  O   ALA A   9     -35.604  19.255 -16.367  0.00  0.00    -0.273 OA
BRANCH  14  17
ATOM     17  CA  LEU A  10     -36.956  21.191 -14.832  0.00  0.00    +0.149 C 
BRANCH  17  18
ATOM     18  C   LEU A  10     -38.225  20.879 -15.637  0.00  0.00    +0.241 C 
ATOM     19  O   LEU A  10     -38.971  19.964 -15.266  0.00  0.00    -0.273 OA
ATOM     20  N   ASP A  11     -38.457  21.598 -16.741  0.00  0.00    -0.297 N 
ATOM     21  H   ASP A  11     -37.830  22.387 -16.999  0.00  0.00    +0.150 HD
BRANCH  20  22
ATOM     22  CA  ASP A  11     -39.608  21.256 -17.580  0.00  0.00    +0.160 C 
BRANCH  22  23
ATOM     23  C   ASP A  11     -39.517  19.814 -18.077  0.00  0.00    +0.241 C 
ATOM     24  O   ASP A  11     -40.541  19.116 -18.204  0.00  0.00    -0.273 OA
ATOM     25  N   LYS A  12     -38.295  19.368 -18.414  0.00  0.00    -0.297 N 
ATOM     26  H   LYS A  12     -37.474  19.999 -18.313  0.00  0.00    +0.150 HD
BRANCH  25  27
ATOM     27  CA  LYS A  12     -38.101  18.014 -18.919  0.00  0.00    +0.149 C 
BRANCH  27  28
ATOM     28  C   LYS A  12     -38.433  16.950 -17.888  0.00  0.00    +0.241 C 
ATOM     29  N   ILE A  13     -37.948  17.103 -16.654  0.00  0.00    -0.298 N 
ATOM     30  H   ILE A  13     -37.352  17.922 -16.420  0.00  0.00    +0.150 HD
ATOM     31  O   LYS A  12     -39.139  15.979 -18.216  0.00  0.00    -0.273 OA
BRANCH  29  32
ATOM     32  CA  ILE A  13     -38.266  16.103 -15.636  0.00  0.00    +0.137 C 
BRANCH  32  33
ATOM     33  C   ILE A  13     -39.747  16.178 -15.277  0.00  0.00    +0.227 C 
ATOM     34  O   ILE A  13     -40.363  15.135 -15.043  0.00  0.00    -0.286 OA
ENDBRANCH  32  33
BRANCH  32  35
ATOM     35  CB  ILE A  13     -37.324  16.130 -14.405  0.00  0.00    +0.026 C 
ATOM     36  CG2 ILE A  13     -37.368  17.450 -13.660  0.00  0.00    +0.002 C 
BRANCH  35  37
ATOM     37  CG1 ILE A  13     -37.614  14.957 -13.435  0.00  0.00    +0.002 C 
ATOM     38  CD1 ILE A  13     -37.360  13.524 -14.016  0.00  0.00    +0.000 C 
ENDBRANCH  35  37
ENDBRANCH  32  35
ENDBRANCH  29  32
ENDBRANCH  27  28
BRANCH  27  39
ATOM     39  CB  LYS A  12     -36.675  17.863 -19.478  0.00  0.00    +0.029 C 
BRANCH  39  40
ATOM     40  CG  LYS A  12     -36.558  16.636 -20.372  0.00  0.00    +0.000 C 
BRANCH  40  41
ATOM     41  CD  LYS A  12     -35.786  16.936 -21.622  0.00  0.00    -0.024 C 
BRANCH  41  42
ATOM     42  CE  LYS A  12     -35.339  15.714 -22.385  0.00  0.00    -0.086 C 
BRANCH  42  43
ATOM     43  NZ  LYS A  12     -34.020  15.946 -23.041  0.00  0.00    +0.380 N 
ATOM     44  HZ1 LYS A  12     -33.308  16.166 -22.316  0.00  0.00    -0.089 HD
ATOM     45  HZ2 LYS A  12     -33.736  15.090 -23.559  0.00  0.00    -0.089 HD
ATOM     46  HZ3 LYS A  12     -34.099  16.743 -23.704  0.00  0.00    -0.089 HD
ENDBRANCH  42  43
ENDBRANCH  41  42
ENDBRANCH  40  41
ENDBRANCH  39  40
ENDBRANCH  27  39
ENDBRANCH  25  27
ENDBRANCH  22  23
BRANCH  22  47
ATOM     47  CB  ASP A  11     -39.634  22.150 -18.822  0.00  0.00    +0.143 C 
BRANCH  47  48
ATOM     48  CG  ASP A  11     -39.946  23.616 -18.641  0.00  0.00    +0.367 C 
ATOM     49  OD2 ASP A  11     -40.552  23.981 -17.609  0.00  0.00    -0.246 OA
ATOM     50  OD1 ASP A  11     -39.572  24.416 -19.533  0.00  0.00    -0.246 OA
ENDBRANCH  47  48
ENDBRANCH  22  47
ENDBRANCH  20  22
ENDBRANCH  17  18
BRANCH  17  51
ATOM     51  CB  LEU A  10     -37.129  22.424 -13.941  0.00  0.00    +0.029 C 
BRANCH  51  52
ATOM     52  CG  LEU A  10     -36.037  22.561 -12.898  0.00  0.00    +0.002 C 
ATOM     53  CD2 LEU A  10     -36.259  21.589 -11.730  0.00  0.00    +0.000 C 
ATOM     54  CD1 LEU A  10     -35.979  23.960 -12.372  0.00  0.00    +0.000 C 
ENDBRANCH  51  52
ENDBRANCH  17  51
ENDBRANCH  14  17
ENDBRANCH  11  13
ENDBRANCH   8  11
ENDBRANCH   6   7
BRANCH   6  55
ATOM     55  CB  ASP A   8     -34.696  24.078 -20.519  0.00  0.00    +0.143 C 
BRANCH  55  56
ATOM     56  CG  ASP A   8     -34.909  25.379 -21.283  0.00  0.00    +0.367 C 
ATOM     57  OD2 ASP A   8     -35.885  26.102 -20.989  0.00  0.00    -0.246 OA
ATOM     58  OD1 ASP A   8     -34.077  25.684 -22.157  0.00  0.00    -0.246 OA
ENDBRANCH  55  56
ENDBRANCH   6  55
ENDBRANCH   4   6
ENDBRANCH   1   2
BRANCH   1  61
ATOM     59  C   SER A   6     -33.641  24.882 -15.493  0.00  0.00    +0.243 C 
ATOM     60  O   SER A   6     -34.166  23.795 -15.308  0.00  0.00    -0.273 OA
ATOM     61  N   SER A   7     -34.319  25.954 -15.925  0.00  0.00    -0.295 N 
ATOM     62  H   SER A   7     -33.804  26.839 -16.108  0.00  0.00    +0.150 HD
BRANCH  59  63
ATOM     63  CA  SER A   6     -32.112  25.027 -15.365  0.00  0.00    +0.178 C 
BRANCH  63  65
ATOM     64  C   ASN A   5     -31.636  25.213 -17.745  0.00  0.00    +0.241 C 
ATOM     65  N   SER A   6     -31.562  25.734 -16.509  0.00  0.00    -0.295 N 
ATOM     66  H   SER A   6     -31.104  26.657 -16.369  0.00  0.00    +0.150 HD
ATOM     67  O   ASN A   5     -32.138  24.112 -18.001  0.00  0.00    -0.273 OA
BRANCH  64  68
ATOM     68  CA  ASN A   5     -31.088  26.082 -18.880  0.00  0.00    +0.158 C 
BRANCH  68  70
ATOM     69  C   SER A   4     -32.696  27.894 -18.719  0.00  0.00    +0.243 C 
ATOM     70  N   ASN A   5     -31.399  27.489 -18.705  0.00  0.00    -0.297 N 
ATOM     71  H   ASN A   5     -30.635  28.182 -18.570  0.00  0.00    +0.150 HD
ATOM     72  O   SER A   4     -33.620  27.098 -18.902  0.00  0.00    -0.273 OA
BRANCH  69  73
ATOM     73  CA  SER A   4     -33.004  29.362 -18.429  0.00  0.00    +0.178 C 
BRANCH  73  76
ATOM     74  C   ILE A   3     -32.254  29.373 -16.101  0.00  0.00    +0.241 C 
ATOM     75  O   ILE A   3     -33.042  28.464 -15.782  0.00  0.00    -0.273 OA
ATOM     76  N   SER A   4     -32.153  29.837 -17.361  0.00  0.00    -0.295 N 
ATOM     77  H   SER A   4     -31.438  30.562 -17.573  0.00  0.00    +0.150 HD
BRANCH  74  78
ATOM     78  CA  ILE A   3     -31.299  29.928 -15.046  0.00  0.00    +0.149 C 
BRANCH  78  80
ATOM     79  C   LEU A   2     -29.244  29.120 -16.079  0.00  0.00    +0.241 C 
ATOM     80  N   ILE A   3     -29.983  30.153 -15.630  0.00  0.00    -0.297 N 
ATOM     81  H   ILE A   3     -29.610  31.121 -15.701  0.00  0.00    +0.150 HD
ATOM     82  O   LEU A   2     -29.648  27.959 -16.023  0.00  0.00    -0.273 OA
BRANCH  79  83
ATOM     83  CA  LEU A   2     -27.895  29.418 -16.730  0.00  0.00    +0.149 C 
BRANCH  83  85
ATOM     84  C   GLU A   1     -28.639  30.623 -18.671  0.00  0.00    +0.238 C 
ATOM     85  N   LEU A   2     -27.985  30.656 -17.516  0.00  0.00    -0.297 N 
ATOM     86  H   LEU A   2     -27.547  31.536 -17.176  0.00  0.00    +0.150 HD
ATOM     87  O   GLU A   1     -29.188  29.613 -19.121  0.00  0.00    -0.274 OA
BRANCH  84  88
ATOM     88  CA  GLU A   1     -28.737  31.940 -19.431  0.00  0.00    +0.145 C 
BRANCH  88  89
ATOM     89  N   GLU A   1     -28.926  33.096 -18.568  0.00  0.00    -0.238 NA
ATOM     90  H   GLU A   1     -28.171  33.805 -18.474  0.00  0.00    +0.142 HD
ENDBRANCH  88  89
BRANCH  88  91
ATOM     91  CB  GLU A   1     -27.502  32.143 -20.337  0.00  0.00    +0.038 C 
BRANCH  91  92
ATOM     92  CG  GLU A   1     -27.550  33.380 -21.244  0.00  0.00    +0.116 C 
BRANCH  92  93
ATOM     93  CD  GLU A   1     -28.766  33.552 -22.139  0.00  0.00    +0.365 C 
ATOM     94  OE2 GLU A   1     -29.181  34.715 -22.381  0.00  0.00    -0.246 OA
ATOM     95  OE1 GLU A   1     -29.385  32.523 -22.478  0.00  0.00    -0.246 OA
ENDBRANCH  92  93
ENDBRANCH  91  92
ENDBRANCH  88  91
ENDBRANCH  84  88
ENDBRANCH  83  85
BRANCH  83  96
ATOM     96  CB  LEU A   2     -26.812  29.564 -15.674  0.00  0.00    +0.029 C 
BRANCH  96  97
ATOM     97  CG  LEU A   2     -25.393  29.761 -16.249  0.00  0.00    +0.002 C 
ATOM     98  CD2 LEU A   2     -24.397  30.008 -15.121  0.00  0.00    +0.000 C 
ATOM     99  CD1 LEU A   2     -24.921  28.528 -17.049  0.00  0.00    +0.000 C 
ENDBRANCH  96  97
ENDBRANCH  83  96
ENDBRANCH  79  83
ENDBRANCH  78  80
BRANCH  78 100
ATOM    100  CB  ILE A   3     -31.796  31.219 -14.373  0.00  0.00    +0.027 C 
ATOM    101  CG2 ILE A   3     -33.291  31.149 -14.030  0.00  0.00    +0.002 C 
BRANCH 100 102
ATOM    102  CG1 ILE A   3     -30.960  31.497 -13.110  0.00  0.00    +0.002 C 
ATOM    103  CD1 ILE A   3     -31.249  32.898 -12.494  0.00  0.00    +0.000 C 
ENDBRANCH 100 102
ENDBRANCH  78 100
ENDBRANCH  74  78
ENDBRANCH  73  76
BRANCH  73 104
ATOM    104  CB  SER A   4     -32.733  30.179 -19.674  0.00  0.00    +0.166 C 
BRANCH 104 105
ATOM    105  OG  SER A   4     -33.406  29.678 -20.807  0.00  0.00    -0.380 OA
ATOM    106  H   SER A   4     -33.110  28.749 -20.981  0.00  0.00    +0.211 HD
ENDBRANCH 104 105
ENDBRANCH  73 104
ENDBRANCH  69  73
ENDBRANCH  68  70
BRANCH  68 107
ATOM    107  CB  ASN A   5     -29.581  25.891 -18.976  0.00  0.00    +0.114 C 
BRANCH 107 108
ATOM    108  CG  ASN A   5     -28.994  26.196 -20.323  0.00  0.00    +0.222 C 
ATOM    109  ND2 ASN A   5     -27.696  26.173 -20.381  0.00  0.00    -0.329 N 
ATOM    110 HD21 ASN A   5     -27.143  25.905 -19.542  0.00  0.00    +0.145 HD
ATOM    111 HD22 ASN A   5     -27.211  26.422 -21.266  0.00  0.00    +0.145 HD
ATOM    112  OD1 ASN A   5     -29.682  26.511 -21.306  0.00  0.00    -0.275 OA
ENDBRANCH 107 108
ENDBRANCH  68 107
ENDBRANCH  64  68
ENDBRANCH  63  65
BRANCH  63 113
ATOM    113  CB  SER A   6     -31.794  25.772 -14.086  0.00  0.00    +0.166 C 
BRANCH 113 114
ATOM    114  OG  SER A   6     -30.421  25.703 -13.753  0.00  0.00    -0.380 OA
ATOM    115  H   SER A   6     -30.160  24.756 -13.630  0.00  0.00    +0.211 HD
ENDBRANCH 113 114
ENDBRANCH  63 113
ENDBRANCH  59  63
ENDBRANCH   1  61
BRANCH   1 116
ATOM    116  CB  SER A   7     -36.224  27.307 -16.537  0.00  0.00    +0.166 C 
BRANCH 116 117
ATOM    117  OG  SER A   7     -37.628  27.277 -16.766  0.00  0.00    -0.380 OA
ATOM    118  H   SER A   7     -37.829  26.639 -17.496  0.00  0.00    +0.211 HD
ENDBRANCH 116 117
ENDBRANCH   1 116
TORSDOF 54
REMARK  Name = ../refined-set-2016/3wha/3wha_pocket.pdb
REMARK  221 active torsions:
REMARK  status: ('A' for Active; 'I' for Inactive)
REMARK    1  A    between atoms: _1  and  _3
REMARK    2  A    between atoms: _3  and  _4
REMARK    3  A    between atoms: _3  and  _6
REMARK    4  A    between atoms: _6  and  _7
REMARK    5  A    between atoms: _10  and  _12
REMARK    6  A    between atoms: _12  and  _13
REMARK    7  A    between atoms: _12  and  _15
REMARK    8  A    between atoms: _15  and  _16
REMARK    9  A    between atoms: _19  and  _21
REMARK   10  A    between atoms: _21  and  _22
REMARK   11  A    between atoms: _21  and  _24
REMARK   12  A    between atoms: _24  and  _25
REMARK   13  A    between atoms: _25  and  _26
REMARK   14  A    between atoms: _29  and  _31
REMARK   15  A    between atoms: _31  and  _32
REMARK   16  A    between atoms: _31  and  _34
REMARK   17  A    between atoms: _34  and  _35
REMARK   18  A    between atoms: _38  and  _40
REMARK   19  A    between atoms: _40  and  _41
REMARK   20  A    between atoms: _40  and  _43
REMARK   21  A    between atoms: _43  and  _44
REMARK   22  A    between atoms: _47  and  _49
REMARK   23  A    between atoms: _49  and  _50
REMARK   24  A    between atoms: _49  and  _52
REMARK   25  A    between atoms: _52  and  _53
REMARK   26  A    between atoms: _55  and  _57
REMARK   27  A    between atoms: _57  and  _58
REMARK   28  A    between atoms: _57  and  _60
REMARK   29  A    between atoms: _60  and  _61
REMARK   30  A    between atoms: _66  and  _68
REMARK   31  A    between atoms: _68  and  _69
REMARK   32  A    between atoms: _68  and  _71
REMARK   33  A    between atoms: _71  and  _72
REMARK   34  A    between atoms: _74  and  _76
REMARK   35  A    between atoms: _76  and  _77
REMARK   36  A    between atoms: _76  and  _79
REMARK   37  A    between atoms: _79  and  _80
REMARK   38  A    between atoms: _82  and  _84
REMARK   39  A    between atoms: _84  and  _85
REMARK   40  A    between atoms: _84  and  _87
REMARK   41  A    between atoms: _87  and  _88
REMARK   42  A    between atoms: _91  and  _93
REMARK   43  A    between atoms: _93  and  _94
REMARK   44  A    between atoms: _97  and  _99
REMARK   45  A    between atoms: _99  and  _100
REMARK   46  A    between atoms: _99  and  _102
REMARK   47  A    between atoms: _102  and  _103
REMARK   48  A    between atoms: _106  and  _108
REMARK   49  A    between atoms: _108  and  _109
REMARK   50  A    between atoms: _108  and  _111
REMARK   51  A    between atoms: _111  and  _112
REMARK   52  A    between atoms: _115  and  _117
REMARK   53  A    between atoms: _117  and  _118
REMARK   54  A    between atoms: _117  and  _120
REMARK   55  A    between atoms: _120  and  _121
REMARK   56  A    between atoms: _121  and  _122
REMARK   57  A    between atoms: _122  and  _123
REMARK   58  A    between atoms: _123  and  _124
REMARK   59  A    between atoms: _128  and  _130
REMARK   60  A    between atoms: _130  and  _131
REMARK   61  A    between atoms: _130  and  _133
REMARK   62  A    between atoms: _133  and  _134
REMARK   63  A    between atoms: _137  and  _139
REMARK   64  A    between atoms: _139  and  _140
REMARK   65  A    between atoms: _139  and  _142
REMARK   66  A    between atoms: _142  and  _143
REMARK   67  A    between atoms: _143  and  _144
REMARK   68  A    between atoms: _147  and  _149
REMARK   69  A    between atoms: _149  and  _150
REMARK   70  A    between atoms: _149  and  _152
REMARK   71  A    between atoms: _152  and  _153
REMARK   72  A    between atoms: _156  and  _158
REMARK   73  A    between atoms: _158  and  _159
REMARK   74  A    between atoms: _158  and  _161
REMARK   75  A    between atoms: _164  and  _166
REMARK   76  A    between atoms: _166  and  _167
REMARK   77  A    between atoms: _166  and  _169
REMARK   78  A    between atoms: _169  and  _170
REMARK   79  A    between atoms: _173  and  _175
REMARK   80  A    between atoms: _175  and  _176
REMARK   81  A    between atoms: _175  and  _178
REMARK   82  A    between atoms: _178  and  _179
REMARK   83  A    between atoms: _182  and  _184
REMARK   84  A    between atoms: _184  and  _185
REMARK   85  A    between atoms: _187  and  _189
REMARK   86  A    between atoms: _189  and  _190
REMARK   87  A    between atoms: _189  and  _192
REMARK   88  A    between atoms: _192  and  _193
REMARK   89  A    between atoms: _196  and  _198
REMARK   90  A    between atoms: _198  and  _199
REMARK   91  A    between atoms: _201  and  _203
REMARK   92  A    between atoms: _203  and  _204
REMARK   93  A    between atoms: _203  and  _206
REMARK   94  A    between atoms: _206  and  _207
REMARK   95  A    between atoms: _207  and  _208
REMARK   96  A    between atoms: _210  and  _212
REMARK   97  A    between atoms: _212  and  _213
REMARK   98  A    between atoms: _212  and  _215
REMARK   99  A    between atoms: _215  and  _216
REMARK  100  A    between atoms: _219  and  _221
REMARK  101  A    between atoms: _221  and  _222
REMARK  102  A    between atoms: _221  and  _224
REMARK  103  A    between atoms: _224  and  _225
REMARK  104  A    between atoms: _228  and  _230
REMARK  105  A    between atoms: _230  and  _231
REMARK  106  A    between atoms: _230  and  _233
REMARK  107  A    between atoms: _233  and  _234
REMARK  108  A    between atoms: _237  and  _239
REMARK  109  A    between atoms: _239  and  _240
REMARK  110  A    between atoms: _239  and  _242
REMARK  111  A    between atoms: _242  and  _243
REMARK  112  A    between atoms: _248  and  _250
REMARK  113  A    between atoms: _250  and  _251
REMARK  114  A    between atoms: _250  and  _253
REMARK  115  A    between atoms: _253  and  _254
REMARK  116  A    between atoms: _259  and  _261
REMARK  117  A    between atoms: _261  and  _262
REMARK  118  A    between atoms: _261  and  _264
REMARK  119  A    between atoms: _264  and  _265
REMARK  120  A    between atoms: _268  and  _270
REMARK  121  A    between atoms: _270  and  _271
REMARK  122  A    between atoms: _273  and  _275
REMARK  123  A    between atoms: _275  and  _276
REMARK  124  A    between atoms: _275  and  _278
REMARK  125  A    between atoms: _278  and  _279
REMARK  126  A    between atoms: _282  and  _284
REMARK  127  A    between atoms: _284  and  _285
REMARK  128  A    between atoms: _284  and  _287
REMARK  129  A    between atoms: _287  and  _288
REMARK  130  A    between atoms: _291  and  _293
REMARK  131  A    between atoms: _293  and  _294
REMARK  132  A    between atoms: _297  and  _299
REMARK  133  A    between atoms: _299  and  _300
REMARK  134  A    between atoms: _299  and  _302
REMARK  135  A    between atoms: _302  and  _303
REMARK  136  A    between atoms: _303  and  _304
REMARK  137  A    between atoms: _304  and  _305
REMARK  138  A    between atoms: _305  and  _306
REMARK  139  A    between atoms: _310  and  _312
REMARK  140  A    between atoms: _312  and  _313
REMARK  141  A    between atoms: _312  and  _315
REMARK  142  A    between atoms: _315  and  _316
REMARK  143  A    between atoms: _318  and  _320
REMARK  144  A    between atoms: _320  and  _321
REMARK  145  A    between atoms: _323  and  _325
REMARK  146  A    between atoms: _325  and  _326
REMARK  147  A    between atoms: _325  and  _328
REMARK  148  A    between atoms: _328  and  _329
REMARK  149  A    between atoms: _332  and  _334
REMARK  150  A    between atoms: _334  and  _335
REMARK  151  A    between atoms: _334  and  _337
REMARK  152  A    between atoms: _337  and  _338
REMARK  153  A    between atoms: _344  and  _346
REMARK  154  A    between atoms: _346  and  _347
REMARK  155  A    between atoms: _349  and  _351
REMARK  156  A    between atoms: _351  and  _352
REMARK  157  A    between atoms: _351  and  _354
REMARK  158  A    between atoms: _357  and  _359
REMARK  159  A    between atoms: _359  and  _360
REMARK  160  A    between atoms: _362  and  _364
REMARK  161  A    between atoms: _364  and  _365
REMARK  162  A    between atoms: _364  and  _367
REMARK  163  A    between atoms: _367  and  _368
REMARK  164  A    between atoms: _374  and  _376
REMARK  165  A    between atoms: _376  and  _377
REMARK  166  A    between atoms: _376  and  _379
REMARK  167  A    between atoms: _379  and  _380
REMARK  168  A    between atoms: _385  and  _386
REMARK  169  A    between atoms: _388  and  _390
REMARK  170  A    between atoms: _390  and  _391
REMARK  171  A    between atoms: _390  and  _393
REMARK  172  A    between atoms: _393  and  _394
REMARK  173  A    between atoms: _396  and  _398
REMARK  174  A    between atoms: _398  and  _399
REMARK  175  A    between atoms: _398  and  _401
REMARK  176  A    between atoms: _404  and  _406
REMARK  177  A    between atoms: _406  and  _407
REMARK  178  A    between atoms: _406  and  _409
REMARK  179  A    between atoms: _409  and  _410
REMARK  180  A    between atoms: _413  and  _415
REMARK  181  A    between atoms: _415  and  _416
REMARK  182  A    between atoms: _415  and  _418
REMARK  183  A    between atoms: _421  and  _423
REMARK  184  A    between atoms: _423  and  _424
REMARK  185  A    between atoms: _423  and  _426
REMARK  186  A    between atoms: _426  and  _427
REMARK  187  A    between atoms: _430  and  _432
REMARK  188  A    between atoms: _432  and  _433
REMARK  189  A    between atoms: _432  and  _435
REMARK  190  A    between atoms: _435  and  _436
REMARK  191  A    between atoms: _439  and  _441
REMARK  192  A    between atoms: _441  and  _442
REMARK  193  A    between atoms: _441  and  _444
REMARK  194  A    between atoms: _444  and  _445
REMARK  195  A    between atoms: _445  and  _446
REMARK  196  A    between atoms: _446  and  _447
REMARK  197  A    between atoms: _447  and  _448
REMARK  198  A    between atoms: _452  and  _454
REMARK  199  A    between atoms: _454  and  _455
REMARK  200  A    between atoms: _454  and  _457
REMARK  201  A    between atoms: _457  and  _458
REMARK  202  A    between atoms: _463  and  _465
REMARK  203  A    between atoms: _465  and  _466
REMARK  204  A    between atoms: _465  and  _468
REMARK  205  A    between atoms: _468  and  _469
REMARK  206  A    between atoms: _479  and  _481
REMARK  207  A    between atoms: _481  and  _482
REMARK  208  A    between atoms: _484  and  _486
REMARK  209  A    between atoms: _486  and  _487
REMARK  210  A    between atoms: _486  and  _489
REMARK  211  A    between atoms: _489  and  _490
REMARK  212  A    between atoms: _493  and  _495
REMARK  213  A    between atoms: _495  and  _496
REMARK  214  A    between atoms: _495  and  _498
REMARK  215  A    between atoms: _498  and  _499
REMARK  216  A    between atoms: _499  and  _500
REMARK  217  A    between atoms: _500  and  _501
REMARK  218  A    between atoms: _501  and  _502
REMARK  219  A    between atoms: _506  and  _508
REMARK  220  A    between atoms: _508  and  _509
REMARK  221  A    between atoms: _508  and  _511
REMARK                            x       y       z     vdW  Elec       q    Type
REMARK                         _______ _______ _______ _____ _____    ______ ____
ROOT
ATOM      1  CA  GLU A   1     -41.318  12.753 -17.977  0.00  0.00    +0.134 C 
ENDROOT
BRANCH   1   2
ATOM      2  N   GLU A   1     -41.566  14.202 -18.043  0.00  0.00    -0.239 NA
ATOM      3  H   GLU A   1     -40.766  14.858 -17.934  0.00  0.00    +0.142 HD
ENDBRANCH   1   2
BRANCH   1   4
ATOM      4  C   GLU A   1     -42.010  12.127 -16.810  0.00  0.00    +0.224 C 
ATOM      5  O   GLU A   1     -42.515  11.001 -16.917  0.00  0.00    -0.287 OA
ENDBRANCH   1   4
BRANCH   1   6
ATOM      6  CB  GLU A   1     -39.825  12.458 -17.914  0.00  0.00    +0.037 C 
BRANCH   6   7
ATOM      7  CG  GLU A   1     -39.125  12.798 -19.217  0.00  0.00    +0.116 C 
BRANCH   7   8
ATOM      8  CD  GLU A   1     -37.810  12.100 -19.499  0.00  0.00    +0.365 C 
ATOM      9  OE2 GLU A   1     -37.360  11.280 -18.664  0.00  0.00    -0.246 OA
ATOM     10  OE1 GLU A   1     -37.224  12.382 -20.568  0.00  0.00    -0.246 OA
ENDBRANCH   7   8
ENDBRANCH   6   7
ENDBRANCH   1   6
TORSDOF 5
REMARK  Name = ../refined-set-2016/3wha/3wha_pocket.pdb
REMARK  221 active torsions:
REMARK  status: ('A' for Active; 'I' for Inactive)
REMARK    1  A    between atoms: _1  and  _3
REMARK    2  A    between atoms: _3  and  _4
REMARK    3  A    between atoms: _3  and  _6
REMARK    4  A    between atoms: _6  and  _7
REMARK    5  A    between atoms: _10  and  _12
REMARK    6  A    between atoms: _12  and  _13
REMARK    7  A    between atoms: _12  and  _15
REMARK    8  A    between atoms: _15  and  _16
REMARK    9  A    between atoms: _19  and  _21
REMARK   10  A    between atoms: _21  and  _22
REMARK   11  A    between atoms: _21  and  _24
REMARK   12  A    between atoms: _24  and  _25
REMARK   13  A    between atoms: _25  and  _26
REMARK   14  A    between atoms: _29  and  _31
REMARK   15  A    between atoms: _31  and  _32
REMARK   16  A    between atoms: _31  and  _34
REMARK   17  A    between atoms: _34  and  _35
REMARK   18  A    between atoms: _38  and  _40
REMARK   19  A    between atoms: _40  and  _41
REMARK   20  A    between atoms: _40  and  _43
REMARK   21  A    between atoms: _43  and  _44
REMARK   22  A    between atoms: _47  and  _49
REMARK   23  A    between atoms: _49  and  _50
REMARK   24  A    between atoms: _49  and  _52
REMARK   25  A    between atoms: _52  and  _53
REMARK   26  A    between atoms: _55  and  _57
REMARK   27  A    between atoms: _57  and  _58
REMARK   28  A    between atoms: _57  and  _60
REMARK   29  A    between atoms: _60  and  _61
REMARK   30  A    between atoms: _66  and  _68
REMARK   31  A    between atoms: _68  and  _69
REMARK   32  A    between atoms: _68  and  _71
REMARK   33  A    between atoms: _71  and  _72
REMARK   34  A    between atoms: _74  and  _76
REMARK   35  A    between atoms: _76  and  _77
REMARK   36  A    between atoms: _76  and  _79
REMARK   37  A    between atoms: _79  and  _80
REMARK   38  A    between atoms: _82  and  _84
REMARK   39  A    between atoms: _84  and  _85
REMARK   40  A    between atoms: _84  and  _87
REMARK   41  A    between atoms: _87  and  _88
REMARK   42  A    between atoms: _91  and  _93
REMARK   43  A    between atoms: _93  and  _94
REMARK   44  A    between atoms: _97  and  _99
REMARK   45  A    between atoms: _99  and  _100
REMARK   46  A    between atoms: _99  and  _102
REMARK   47  A    between atoms: _102  and  _103
REMARK   48  A    between atoms: _106  and  _108
REMARK   49  A    between atoms: _108  and  _109
REMARK   50  A    between atoms: _108  and  _111
REMARK   51  A    between atoms: _111  and  _112
REMARK   52  A    between atoms: _115  and  _117
REMARK   53  A    between atoms: _117  and  _118
REMARK   54  A    between atoms: _117  and  _120
REMARK   55  A    between atoms: _120  and  _121
REMARK   56  A    between atoms: _121  and  _122
REMARK   57  A    between atoms: _122  and  _123
REMARK   58  A    between atoms: _123  and  _124
REMARK   59  A    between atoms: _128  and  _130
REMARK   60  A    between atoms: _130  and  _131
REMARK   61  A    between atoms: _130  and  _133
REMARK   62  A    between atoms: _133  and  _134
REMARK   63  A    between atoms: _137  and  _139
REMARK   64  A    between atoms: _139  and  _140
REMARK   65  A    between atoms: _139  and  _142
REMARK   66  A    between atoms: _142  and  _143
REMARK   67  A    between atoms: _143  and  _144
REMARK   68  A    between atoms: _147  and  _149
REMARK   69  A    between atoms: _149  and  _150
REMARK   70  A    between atoms: _149  and  _152
REMARK   71  A    between atoms: _152  and  _153
REMARK   72  A    between atoms: _156  and  _158
REMARK   73  A    between atoms: _158  and  _159
REMARK   74  A    between atoms: _158  and  _161
REMARK   75  A    between atoms: _164  and  _166
REMARK   76  A    between atoms: _166  and  _167
REMARK   77  A    between atoms: _166  and  _169
REMARK   78  A    between atoms: _169  and  _170
REMARK   79  A    between atoms: _173  and  _175
REMARK   80  A    between atoms: _175  and  _176
REMARK   81  A    between atoms: _175  and  _178
REMARK   82  A    between atoms: _178  and  _179
REMARK   83  A    between atoms: _182  and  _184
REMARK   84  A    between atoms: _184  and  _185
REMARK   85  A    between atoms: _187  and  _189
REMARK   86  A    between atoms: _189  and  _190
REMARK   87  A    between atoms: _189  and  _192
REMARK   88  A    between atoms: _192  and  _193
REMARK   89  A    between atoms: _196  and  _198
REMARK   90  A    between atoms: _198  and  _199
REMARK   91  A    between atoms: _201  and  _203
REMARK   92  A    between atoms: _203  and  _204
REMARK   93  A    between atoms: _203  and  _206
REMARK   94  A    between atoms: _206  and  _207
REMARK   95  A    between atoms: _207  and  _208
REMARK   96  A    between atoms: _210  and  _212
REMARK   97  A    between atoms: _212  and  _213
REMARK   98  A    between atoms: _212  and  _215
REMARK   99  A    between atoms: _215  and  _216
REMARK  100  A    between atoms: _219  and  _221
REMARK  101  A    between atoms: _221  and  _222
REMARK  102  A    between atoms: _221  and  _224
REMARK  103  A    between atoms: _224  and  _225
REMARK  104  A    between atoms: _228  and  _230
REMARK  105  A    between atoms: _230  and  _231
REMARK  106  A    between atoms: _230  and  _233
REMARK  107  A    between atoms: _233  and  _234
REMARK  108  A    between atoms: _237  and  _239
REMARK  109  A    between atoms: _239  and  _240
REMARK  110  A    between atoms: _239  and  _242
REMARK  111  A    between atoms: _242  and  _243
REMARK  112  A    between atoms: _248  and  _250
REMARK  113  A    between atoms: _250  and  _251
REMARK  114  A    between atoms: _250  and  _253
REMARK  115  A    between atoms: _253  and  _254
REMARK  116  A    between atoms: _259  and  _261
REMARK  117  A    between atoms: _261  and  _262
REMARK  118  A    between atoms: _261  and  _264
REMARK  119  A    between atoms: _264  and  _265
REMARK  120  A    between atoms: _268  and  _270
REMARK  121  A    between atoms: _270  and  _271
REMARK  122  A    between atoms: _273  and  _275
REMARK  123  A    between atoms: _275  and  _276
REMARK  124  A    between atoms: _275  and  _278
REMARK  125  A    between atoms: _278  and  _279
REMARK  126  A    between atoms: _282  and  _284
REMARK  127  A    between atoms: _284  and  _285
REMARK  128  A    between atoms: _284  and  _287
REMARK  129  A    between atoms: _287  and  _288
REMARK  130  A    between atoms: _291  and  _293
REMARK  131  A    between atoms: _293  and  _294
REMARK  132  A    between atoms: _297  and  _299
REMARK  133  A    between atoms: _299  and  _300
REMARK  134  A    between atoms: _299  and  _302
REMARK  135  A    between atoms: _302  and  _303
REMARK  136  A    between atoms: _303  and  _304
REMARK  137  A    between atoms: _304  and  _305
REMARK  138  A    between atoms: _305  and  _306
REMARK  139  A    between atoms: _310  and  _312
REMARK  140  A    between atoms: _312  and  _313
REMARK  141  A    between atoms: _312  and  _315
REMARK  142  A    between atoms: _315  and  _316
REMARK  143  A    between atoms: _318  and  _320
REMARK  144  A    between atoms: _320  and  _321
REMARK  145  A    between atoms: _323  and  _325
REMARK  146  A    between atoms: _325  and  _326
REMARK  147  A    between atoms: _325  and  _328
REMARK  148  A    between atoms: _328  and  _329
REMARK  149  A    between atoms: _332  and  _334
REMARK  150  A    between atoms: _334  and  _335
REMARK  151  A    between atoms: _334  and  _337
REMARK  152  A    between atoms: _337  and  _338
REMARK  153  A    between atoms: _344  and  _346
REMARK  154  A    between atoms: _346  and  _347
REMARK  155  A    between atoms: _349  and  _351
REMARK  156  A    between atoms: _351  and  _352
REMARK  157  A    between atoms: _351  and  _354
REMARK  158  A    between atoms: _357  and  _359
REMARK  159  A    between atoms: _359  and  _360
REMARK  160  A    between atoms: _362  and  _364
REMARK  161  A    between atoms: _364  and  _365
REMARK  162  A    between atoms: _364  and  _367
REMARK  163  A    between atoms: _367  and  _368
REMARK  164  A    between atoms: _374  and  _376
REMARK  165  A    between atoms: _376  and  _377
REMARK  166  A    between atoms: _376  and  _379
REMARK  167  A    between atoms: _379  and  _380
REMARK  168  A    between atoms: _385  and  _386
REMARK  169  A    between atoms: _388  and  _390
REMARK  170  A    between atoms: _390  and  _391
REMARK  171  A    between atoms: _390  and  _393
REMARK  172  A    between atoms: _393  and  _394
REMARK  173  A    between atoms: _396  and  _398
REMARK  174  A    between atoms: _398  and  _399
REMARK  175  A    between atoms: _398  and  _401
REMARK  176  A    between atoms: _404  and  _406
REMARK  177  A    between atoms: _406  and  _407
REMARK  178  A    between atoms: _406  and  _409
REMARK  179  A    between atoms: _409  and  _410
REMARK  180  A    between atoms: _413  and  _415
REMARK  181  A    between atoms: _415  and  _416
REMARK  182  A    between atoms: _415  and  _418
REMARK  183  A    between atoms: _421  and  _423
REMARK  184  A    between atoms: _423  and  _424
REMARK  185  A    between atoms: _423  and  _426
REMARK  186  A    between atoms: _426  and  _427
REMARK  187  A    between atoms: _430  and  _432
REMARK  188  A    between atoms: _432  and  _433
REMARK  189  A    between atoms: _432  and  _435
REMARK  190  A    between atoms: _435  and  _436
REMARK  191  A    between atoms: _439  and  _441
REMARK  192  A    between atoms: _441  and  _442
REMARK  193  A    between atoms: _441  and  _444
REMARK  194  A    between atoms: _444  and  _445
REMARK  195  A    between atoms: _445  and  _446
REMARK  196  A    between atoms: _446  and  _447
REMARK  197  A    between atoms: _447  and  _448
REMARK  198  A    between atoms: _452  and  _454
REMARK  199  A    between atoms: _454  and  _455
REMARK  200  A    between atoms: _454  and  _457
REMARK  201  A    between atoms: _457  and  _458
REMARK  202  A    between atoms: _463  and  _465
REMARK  203  A    between atoms: _465  and  _466
REMARK  204  A    between atoms: _465  and  _468
REMARK  205  A    between atoms: _468  and  _469
REMARK  206  A    between atoms: _479  and  _481
REMARK  207  A    between atoms: _481  and  _482
REMARK  208  A    between atoms: _484  and  _486
REMARK  209  A    between atoms: _486  and  _487
REMARK  210  A    between atoms: _486  and  _489
REMARK  211  A    between atoms: _489  and  _490
REMARK  212  A    between atoms: _493  and  _495
REMARK  213  A    between atoms: _495  and  _496
REMARK  214  A    between atoms: _495  and  _498
REMARK  215  A    between atoms: _498  and  _499
REMARK  216  A    between atoms: _499  and  _500
REMARK  217  A    between atoms: _500  and  _501
REMARK  218  A    between atoms: _501  and  _502
REMARK  219  A    between atoms: _506  and  _508
REMARK  220  A    between atoms: _508  and  _509
REMARK  221  A    between atoms: _508  and  _511
REMARK                            x       y       z     vdW  Elec       q    Type
REMARK                         _______ _______ _______ _____ _____    ______ ____
ROOT
ATOM      1  C   THR A   4     -34.029  19.083 -10.852  0.00  0.00    +0.243 C 
ATOM      2  O   THR A   4     -35.023  18.319 -10.860  0.00  0.00    -0.273 OA
ATOM      3  N   GLY A   5     -33.462  19.548 -11.978  0.00  0.00    -0.295 N 
ATOM      4  H   GLY A   5     -32.661  20.206 -11.895  0.00  0.00    +0.150 HD
ENDROOT
BRANCH   3   5
ATOM      5  CA  GLY A   5     -33.913  19.176 -13.295  0.00  0.00    +0.176 C 
BRANCH   5   6
ATOM      6  C   GLY A   5     -33.552  17.747 -13.644  0.00  0.00    +0.243 C 
ATOM      7  O   GLY A   5     -33.118  16.956 -12.786  0.00  0.00    -0.273 OA
ATOM      8  N   ILE A   6     -33.703  17.386 -14.910  0.00  0.00    -0.297 N 
ATOM      9  H   ILE A   6     -34.001  18.104 -15.601  0.00  0.00    +0.150 HD
BRANCH   8  10
ATOM     10  CA  ILE A   6     -33.469  16.028 -15.372  0.00  0.00    +0.149 C 
BRANCH  10  11
ATOM     11  C   ILE A   6     -32.035  15.556 -15.212  0.00  0.00    +0.241 C 
ATOM     12  O   ILE A   6     -31.827  14.346 -15.055  0.00  0.00    -0.273 OA
ATOM     13  N   GLY A   7     -31.062  16.481 -15.277  0.00  0.00    -0.295 N 
ATOM     14  H   GLY A   7     -31.298  17.488 -15.386  0.00  0.00    +0.150 HD
BRANCH  13  15
ATOM     15  CA  GLY A   7     -29.671  16.053 -15.192  0.00  0.00    +0.176 C 
BRANCH  15  16
ATOM     16  C   GLY A   7     -29.175  15.421 -16.471  0.00  0.00    +0.243 C 
ATOM     17  N   MET A   8     -27.919  14.968 -16.450  0.00  0.00    -0.297 N 
ATOM     18  H   MET A   8     -27.384  15.054 -15.562  0.00  0.00    +0.150 HD
ATOM     19  O   GLY A   7     -29.910  15.327 -17.452  0.00  0.00    -0.273 OA
BRANCH  17  20
ATOM     20  CA  MET A   8     -27.254  14.362 -17.591  0.00  0.00    +0.149 C 
BRANCH  20  21
ATOM     21  C   MET A   8     -26.575  13.074 -17.233  0.00  0.00    +0.241 C 
ATOM     22  O   MET A   8     -25.906  12.968 -16.198  0.00  0.00    -0.273 OA
ATOM     23  N   THR A   9     -26.707  12.088 -18.120  0.00  0.00    -0.296 N 
ATOM     24  H   THR A   9     -27.387  12.178 -18.902  0.00  0.00    +0.150 HD
BRANCH  23  25
ATOM     25  CA  THR A   9     -25.898  10.884 -17.993  0.00  0.00    +0.164 C 
BRANCH  25  26
ATOM     26  CB  THR A   9     -26.407   9.803 -18.947  0.00  0.00    +0.136 C 
ATOM     27  CG2 THR A   9     -27.854   9.360 -18.634  0.00  0.00    +0.034 C 
BRANCH  26  28
ATOM     28  OG1 THR A   9     -26.260  10.258 -20.299  0.00  0.00    -0.382 OA
ATOM     29  HG1 THR A   9     -26.589   9.560 -20.919  0.00  0.00    +0.210 HD
ENDBRANCH  26  28
ENDBRANCH  25  26
BRANCH  25  30
ATOM     30  C   THR A   9     -24.461  11.290 -18.413  0.00  0.00    +0.229 C 
ATOM     31  O   THR A   9     -24.237  12.393 -18.952  0.00  0.00    -0.286 OA
ENDBRANCH  25  30
ENDBRANCH  23  25
ENDBRANCH  20  21
BRANCH  20  32
ATOM     32  CB  MET A   8     -26.199  15.325 -18.163  0.00  0.00    +0.041 C 
BRANCH  32  33
ATOM     33  CG  MET A   8     -26.815  16.502 -18.888  0.00  0.00    +0.060 C 
BRANCH  33  34
ATOM     34  SD  MET A   8     -25.606  17.756 -19.359  0.00  0.00    -0.139 S 
ATOM     35  CE  MET A   8     -25.529  18.706 -17.772  0.00  0.00    +0.069 C 
ENDBRANCH  33  34
ENDBRANCH  32  33
ENDBRANCH  20  32
ENDBRANCH  17  20
ENDBRANCH  15  16
ENDBRANCH  13  15
ENDBRANCH  10  11
BRANCH  10  36
ATOM     36  CB  ILE A   6     -34.016  15.866 -16.821  0.00  0.00    +0.027 C 
ATOM     37  CG2 ILE A   6     -33.202  16.709 -17.814  0.00  0.00    +0.002 C 
BRANCH  36  38
ATOM     38  CG1 ILE A   6     -34.010  14.390 -17.298  0.00  0.00    +0.002 C 
ATOM     39  CD1 ILE A   6     -35.124  13.976 -18.166  0.00  0.00    +0.000 C 
ENDBRANCH  36  38
ENDBRANCH  10  36
ENDBRANCH   8  10
ENDBRANCH   5   6
ENDBRANCH   3   5
BRANCH   1  40
ATOM     40  CA  THR A   4     -33.394  19.578  -9.531  0.00  0.00    +0.176 C 
BRANCH  40  42
ATOM     41  C   ASP A   3     -31.688  21.313  -9.811  0.00  0.00    +0.241 C 
ATOM     42  N   THR A   4     -32.972  20.977  -9.703  0.00  0.00    -0.295 N 
ATOM     43  H   THR A   4     -33.696  21.723  -9.741  0.00  0.00    +0.150 HD
ATOM     44  O   ASP A   3     -30.761  20.499  -9.713  0.00  0.00    -0.273 OA
BRANCH  41  45
ATOM     45  CA  ASP A   3     -31.419  22.788 -10.115  0.00  0.00    +0.160 C 
BRANCH  45  48
ATOM     46  C   VAL A   2     -29.733  24.185  -9.125  0.00  0.00    +0.241 C 
ATOM     47  O   VAL A   2     -30.578  25.005  -8.742  0.00  0.00    -0.273 OA
ATOM     48  N   ASP A   3     -30.046  23.099  -9.823  0.00  0.00    -0.297 N 
ATOM     49  H   ASP A   3     -29.291  22.468 -10.161  0.00  0.00    +0.150 HD
BRANCH  46  50
ATOM     50  CA  VAL A   2     -28.282  24.354  -8.734  0.00  0.00    +0.148 C 
BRANCH  50  52
ATOM     51  C   ILE A   1     -26.938  26.109  -9.801  0.00  0.00    +0.238 C 
ATOM     52  N   VAL A   2     -27.873  25.747  -8.927  0.00  0.00    -0.297 N 
ATOM     53  H   VAL A   2     -28.333  26.485  -8.356  0.00  0.00    +0.150 HD
ATOM     54  O   ILE A   1     -26.348  25.304 -10.536  0.00  0.00    -0.274 OA
BRANCH  51  55
ATOM     55  CA  ILE A   1     -26.578  27.615  -9.867  0.00  0.00    +0.145 C 
BRANCH  55  56
ATOM     56  N   ILE A   1     -25.181  27.667  -9.433  0.00  0.00    -0.238 NA
ATOM     57  H   ILE A   1     -24.455  27.244 -10.046  0.00  0.00    +0.142 HD
ENDBRANCH  55  56
BRANCH  55  58
ATOM     58  CB  ILE A   1     -26.772  28.165 -11.291  0.00  0.00    +0.025 C 
ATOM     59  CG2 ILE A   1     -28.222  27.926 -11.730  0.00  0.00    +0.002 C 
BRANCH  58  60
ATOM     60  CG1 ILE A   1     -26.389  29.677 -11.441  0.00  0.00    +0.002 C 
ATOM     61  CD1 ILE A   1     -24.880  30.076 -11.361  0.00  0.00    +0.000 C 
ENDBRANCH  58  60
ENDBRANCH  55  58
ENDBRANCH  51  55
ENDBRANCH  50  52
BRANCH  50  62
ATOM     62  CB  VAL A   2     -28.135  23.905  -7.240  0.00  0.00    +0.027 C 
ATOM     63  CG2 VAL A   2     -26.791  24.299  -6.653  0.00  0.00    +0.002 C 
ATOM     64  CG1 VAL A   2     -28.369  22.393  -7.094  0.00  0.00    +0.002 C 
ENDBRANCH  50  62
ENDBRANCH  46  50
ENDBRANCH  45  48
BRANCH  45  65
ATOM     65  CB  ASP A   3     -31.805  23.126 -11.564  0.00  0.00    +0.143 C 
BRANCH  65  66
ATOM     66  CG  ASP A   3     -31.033  22.319 -12.583  0.00  0.00    +0.367 C 
ATOM     67  OD2 ASP A   3     -31.229  21.065 -12.634  0.00  0.00    -0.246 OA
ATOM     68  OD1 ASP A   3     -30.247  22.924 -13.352  0.00  0.00    -0.246 OA
ENDBRANCH  65  66
ENDBRANCH  45  65
ENDBRANCH  41  45
ENDBRANCH  40  42
BRANCH  40  69
ATOM     69  CB  THR A   4     -34.321  19.456  -8.337  0.00  0.00    +0.137 C 
ATOM     70  CG2 THR A   4     -33.571  19.722  -7.020  0.00  0.00    +0.034 C 
BRANCH  69  71
ATOM     71  OG1 THR A   4     -35.374  20.409  -8.514  0.00  0.00    -0.382 OA
ATOM     72  HG1 THR A   4     -35.999  20.355  -7.748  0.00  0.00    +0.210 HD
ENDBRANCH  69  71
ENDBRANCH  40  69
ENDBRANCH   1  40
TORSDOF 32
REMARK  Name = ../refined-set-2016/3wha/3wha_pocket.pdb
REMARK  221 active torsions:
REMARK  status: ('A' for Active; 'I' for Inactive)
REMARK    1  A    between atoms: _1  and  _3
REMARK    2  A    between atoms: _3  and  _4
REMARK    3  A    between atoms: _3  and  _6
REMARK    4  A    between atoms: _6  and  _7
REMARK    5  A    between atoms: _10  and  _12
REMARK    6  A    between atoms: _12  and  _13
REMARK    7  A    between atoms: _12  and  _15
REMARK    8  A    between atoms: _15  and  _16
REMARK    9  A    between atoms: _19  and  _21
REMARK   10  A    between atoms: _21  and  _22
REMARK   11  A    between atoms: _21  and  _24
REMARK   12  A    between atoms: _24  and  _25
REMARK   13  A    between atoms: _25  and  _26
REMARK   14  A    between atoms: _29  and  _31
REMARK   15  A    between atoms: _31  and  _32
REMARK   16  A    between atoms: _31  and  _34
REMARK   17  A    between atoms: _34  and  _35
REMARK   18  A    between atoms: _38  and  _40
REMARK   19  A    between atoms: _40  and  _41
REMARK   20  A    between atoms: _40  and  _43
REMARK   21  A    between atoms: _43  and  _44
REMARK   22  A    between atoms: _47  and  _49
REMARK   23  A    between atoms: _49  and  _50
REMARK   24  A    between atoms: _49  and  _52
REMARK   25  A    between atoms: _52  and  _53
REMARK   26  A    between atoms: _55  and  _57
REMARK   27  A    between atoms: _57  and  _58
REMARK   28  A    between atoms: _57  and  _60
REMARK   29  A    between atoms: _60  and  _61
REMARK   30  A    between atoms: _66  and  _68
REMARK   31  A    between atoms: _68  and  _69
REMARK   32  A    between atoms: _68  and  _71
REMARK   33  A    between atoms: _71  and  _72
REMARK   34  A    between atoms: _74  and  _76
REMARK   35  A    between atoms: _76  and  _77
REMARK   36  A    between atoms: _76  and  _79
REMARK   37  A    between atoms: _79  and  _80
REMARK   38  A    between atoms: _82  and  _84
REMARK   39  A    between atoms: _84  and  _85
REMARK   40  A    between atoms: _84  and  _87
REMARK   41  A    between atoms: _87  and  _88
REMARK   42  A    between atoms: _91  and  _93
REMARK   43  A    between atoms: _93  and  _94
REMARK   44  A    between atoms: _97  and  _99
REMARK   45  A    between atoms: _99  and  _100
REMARK   46  A    between atoms: _99  and  _102
REMARK   47  A    between atoms: _102  and  _103
REMARK   48  A    between atoms: _106  and  _108
REMARK   49  A    between atoms: _108  and  _109
REMARK   50  A    between atoms: _108  and  _111
REMARK   51  A    between atoms: _111  and  _112
REMARK   52  A    between atoms: _115  and  _117
REMARK   53  A    between atoms: _117  and  _118
REMARK   54  A    between atoms: _117  and  _120
REMARK   55  A    between atoms: _120  and  _121
REMARK   56  A    between atoms: _121  and  _122
REMARK   57  A    between atoms: _122  and  _123
REMARK   58  A    between atoms: _123  and  _124
REMARK   59  A    between atoms: _128  and  _130
REMARK   60  A    between atoms: _130  and  _131
REMARK   61  A    between atoms: _130  and  _133
REMARK   62  A    between atoms: _133  and  _134
REMARK   63  A    between atoms: _137  and  _139
REMARK   64  A    between atoms: _139  and  _140
REMARK   65  A    between atoms: _139  and  _142
REMARK   66  A    between atoms: _142  and  _143
REMARK   67  A    between atoms: _143  and  _144
REMARK   68  A    between atoms: _147  and  _149
REMARK   69  A    between atoms: _149  and  _150
REMARK   70  A    between atoms: _149  and  _152
REMARK   71  A    between atoms: _152  and  _153
REMARK   72  A    between atoms: _156  and  _158
REMARK   73  A    between atoms: _158  and  _159
REMARK   74  A    between atoms: _158  and  _161
REMARK   75  A    between atoms: _164  and  _166
REMARK   76  A    between atoms: _166  and  _167
REMARK   77  A    between atoms: _166  and  _169
REMARK   78  A    between atoms: _169  and  _170
REMARK   79  A    between atoms: _173  and  _175
REMARK   80  A    between atoms: _175  and  _176
REMARK   81  A    between atoms: _175  and  _178
REMARK   82  A    between atoms: _178  and  _179
REMARK   83  A    between atoms: _182  and  _184
REMARK   84  A    between atoms: _184  and  _185
REMARK   85  A    between atoms: _187  and  _189
REMARK   86  A    between atoms: _189  and  _190
REMARK   87  A    between atoms: _189  and  _192
REMARK   88  A    between atoms: _192  and  _193
REMARK   89  A    between atoms: _196  and  _198
REMARK   90  A    between atoms: _198  and  _199
REMARK   91  A    between atoms: _201  and  _203
REMARK   92  A    between atoms: _203  and  _204
REMARK   93  A    between atoms: _203  and  _206
REMARK   94  A    between atoms: _206  and  _207
REMARK   95  A    between atoms: _207  and  _208
REMARK   96  A    between atoms: _210  and  _212
REMARK   97  A    between atoms: _212  and  _213
REMARK   98  A    between atoms: _212  and  _215
REMARK   99  A    between atoms: _215  and  _216
REMARK  100  A    between atoms: _219  and  _221
REMARK  101  A    between atoms: _221  and  _222
REMARK  102  A    between atoms: _221  and  _224
REMARK  103  A    between atoms: _224  and  _225
REMARK  104  A    between atoms: _228  and  _230
REMARK  105  A    between atoms: _230  and  _231
REMARK  106  A    between atoms: _230  and  _233
REMARK  107  A    between atoms: _233  and  _234
REMARK  108  A    between atoms: _237  and  _239
REMARK  109  A    between atoms: _239  and  _240
REMARK  110  A    between atoms: _239  and  _242
REMARK  111  A    between atoms: _242  and  _243
REMARK  112  A    between atoms: _248  and  _250
REMARK  113  A    between atoms: _250  and  _251
REMARK  114  A    between atoms: _250  and  _253
REMARK  115  A    between atoms: _253  and  _254
REMARK  116  A    between atoms: _259  and  _261
REMARK  117  A    between atoms: _261  and  _262
REMARK  118  A    between atoms: _261  and  _264
REMARK  119  A    between atoms: _264  and  _265
REMARK  120  A    between atoms: _268  and  _270
REMARK  121  A    between atoms: _270  and  _271
REMARK  122  A    between atoms: _273  and  _275
REMARK  123  A    between atoms: _275  and  _276
REMARK  124  A    between atoms: _275  and  _278
REMARK  125  A    between atoms: _278  and  _279
REMARK  126  A    between atoms: _282  and  _284
REMARK  127  A    between atoms: _284  and  _285
REMARK  128  A    between atoms: _284  and  _287
REMARK  129  A    between atoms: _287  and  _288
REMARK  130  A    between atoms: _291  and  _293
REMARK  131  A    between atoms: _293  and  _294
REMARK  132  A    between atoms: _297  and  _299
REMARK  133  A    between atoms: _299  and  _300
REMARK  134  A    between atoms: _299  and  _302
REMARK  135  A    between atoms: _302  and  _303
REMARK  136  A    between atoms: _303  and  _304
REMARK  137  A    between atoms: _304  and  _305
REMARK  138  A    between atoms: _305  and  _306
REMARK  139  A    between atoms: _310  and  _312
REMARK  140  A    between atoms: _312  and  _313
REMARK  141  A    between atoms: _312  and  _315
REMARK  142  A    between atoms: _315  and  _316
REMARK  143  A    between atoms: _318  and  _320
REMARK  144  A    between atoms: _320  and  _321
REMARK  145  A    between atoms: _323  and  _325
REMARK  146  A    between atoms: _325  and  _326
REMARK  147  A    between atoms: _325  and  _328
REMARK  148  A    between atoms: _328  and  _329
REMARK  149  A    between atoms: _332  and  _334
REMARK  150  A    between atoms: _334  and  _335
REMARK  151  A    between atoms: _334  and  _337
REMARK  152  A    between atoms: _337  and  _338
REMARK  153  A    between atoms: _344  and  _346
REMARK  154  A    between atoms: _346  and  _347
REMARK  155  A    between atoms: _349  and  _351
REMARK  156  A    between atoms: _351  and  _352
REMARK  157  A    between atoms: _351  and  _354
REMARK  158  A    between atoms: _357  and  _359
REMARK  159  A    between atoms: _359  and  _360
REMARK  160  A    between atoms: _362  and  _364
REMARK  161  A    between atoms: _364  and  _365
REMARK  162  A    between atoms: _364  and  _367
REMARK  163  A    between atoms: _367  and  _368
REMARK  164  A    between atoms: _374  and  _376
REMARK  165  A    between atoms: _376  and  _377
REMARK  166  A    between atoms: _376  and  _379
REMARK  167  A    between atoms: _379  and  _380
REMARK  168  A    between atoms: _385  and  _386
REMARK  169  A    between atoms: _388  and  _390
REMARK  170  A    between atoms: _390  and  _391
REMARK  171  A    between atoms: _390  and  _393
REMARK  172  A    between atoms: _393  and  _394
REMARK  173  A    between atoms: _396  and  _398
REMARK  174  A    between atoms: _398  and  _399
REMARK  175  A    between atoms: _398  and  _401
REMARK  176  A    between atoms: _404  and  _406
REMARK  177  A    between atoms: _406  and  _407
REMARK  178  A    between atoms: _406  and  _409
REMARK  179  A    between atoms: _409  and  _410
REMARK  180  A    between atoms: _413  and  _415
REMARK  181  A    between atoms: _415  and  _416
REMARK  182  A    between atoms: _415  and  _418
REMARK  183  A    between atoms: _421  and  _423
REMARK  184  A    between atoms: _423  and  _424
REMARK  185  A    between atoms: _423  and  _426
REMARK  186  A    between atoms: _426  and  _427
REMARK  187  A    between atoms: _430  and  _432
REMARK  188  A    between atoms: _432  and  _433
REMARK  189  A    between atoms: _432  and  _435
REMARK  190  A    between atoms: _435  and  _436
REMARK  191  A    between atoms: _439  and  _441
REMARK  192  A    between atoms: _441  and  _442
REMARK  193  A    between atoms: _441  and  _444
REMARK  194  A    between atoms: _444  and  _445
REMARK  195  A    between atoms: _445  and  _446
REMARK  196  A    between atoms: _446  and  _447
REMARK  197  A    between atoms: _447  and  _448
REMARK  198  A    between atoms: _452  and  _454
REMARK  199  A    between atoms: _454  and  _455
REMARK  200  A    between atoms: _454  and  _457
REMARK  201  A    between atoms: _457  and  _458
REMARK  202  A    between atoms: _463  and  _465
REMARK  203  A    between atoms: _465  and  _466
REMARK  204  A    between atoms: _465  and  _468
REMARK  205  A    between atoms: _468  and  _469
REMARK  206  A    between atoms: _479  and  _481
REMARK  207  A    between atoms: _481  and  _482
REMARK  208  A    between atoms: _484  and  _486
REMARK  209  A    between atoms: _486  and  _487
REMARK  210  A    between atoms: _486  and  _489
REMARK  211  A    between atoms: _489  and  _490
REMARK  212  A    between atoms: _493  and  _495
REMARK  213  A    between atoms: _495  and  _496
REMARK  214  A    between atoms: _495  and  _498
REMARK  215  A    between atoms: _498  and  _499
REMARK  216  A    between atoms: _499  and  _500
REMARK  217  A    between atoms: _500  and  _501
REMARK  218  A    between atoms: _501  and  _502
REMARK  219  A    between atoms: _506  and  _508
REMARK  220  A    between atoms: _508  and  _509
REMARK  221  A    between atoms: _508  and  _511
REMARK                            x       y       z     vdW  Elec       q    Type
REMARK                         _______ _______ _______ _____ _____    ______ ____
ROOT
ATOM      1  C   ASP A   1     -24.276  14.593 -21.964  0.00  0.00    +0.239 C 
ATOM      2  N   LEU A   2     -23.532  14.418 -20.871  0.00  0.00    -0.298 N 
ATOM      3  H   LEU A   2     -23.601  13.518 -20.355  0.00  0.00    +0.150 HD
ATOM      4  O   ASP A   1     -24.261  15.612 -22.642  0.00  0.00    -0.274 OA
ENDROOT
BRANCH   1   5
ATOM      5  CA  ASP A   1     -25.230  13.462 -22.299  0.00  0.00    +0.156 C 
BRANCH   5   6
ATOM      6  N   ASP A   1     -24.588  12.149 -22.067  0.00  0.00    -0.238 NA
ATOM      7  H   ASP A   1     -25.001  11.488 -21.379  0.00  0.00    +0.142 HD
ENDBRANCH   5   6
BRANCH   5   8
ATOM      8  CB  ASP A   1     -26.496  13.633 -21.428  0.00  0.00    +0.140 C 
BRANCH   8   9
ATOM      9  CG  ASP A   1     -27.615  12.645 -21.660  0.00  0.00    +0.367 C 
ATOM     10  OD2 ASP A   1     -28.473  12.483 -20.736  0.00  0.00    -0.246 OA
ATOM     11  OD1 ASP A   1     -27.675  12.064 -22.779  0.00  0.00    -0.246 OA
ENDBRANCH   8   9
ENDBRANCH   5   8
ENDBRANCH   1   5
BRANCH   2  12
ATOM     12  CA  LEU A   2     -22.633  15.438 -20.380  0.00  0.00    +0.137 C 
BRANCH  12  13
ATOM     13  C   LEU A   2     -21.534  15.732 -21.391  0.00  0.00    +0.227 C 
ATOM     14  O   LEU A   2     -21.308  16.888 -21.725  0.00  0.00    -0.286 OA
ENDBRANCH  12  13
BRANCH  12  15
ATOM     15  CB  LEU A   2     -22.087  14.984 -19.015  0.00  0.00    +0.028 C 
BRANCH  15  16
ATOM     16  CG  LEU A   2     -21.131  15.902 -18.281  0.00  0.00    +0.002 C 
ATOM     17  CD2 LEU A   2     -20.609  15.225 -17.013  0.00  0.00    +0.000 C 
ATOM     18  CD1 LEU A   2     -21.780  17.265 -17.907  0.00  0.00    +0.000 C 
ENDBRANCH  15  16
ENDBRANCH  12  15
ENDBRANCH   2  12
TORSDOF 8
REMARK  Name = ../refined-set-2016/3wha/3wha_pocket.pdb
REMARK  221 active torsions:
REMARK  status: ('A' for Active; 'I' for Inactive)
REMARK    1  A    between atoms: _1  and  _3
REMARK    2  A    between atoms: _3  and  _4
REMARK    3  A    between atoms: _3  and  _6
REMARK    4  A    between atoms: _6  and  _7
REMARK    5  A    between atoms: _10  and  _12
REMARK    6  A    between atoms: _12  and  _13
REMARK    7  A    between atoms: _12  and  _15
REMARK    8  A    between atoms: _15  and  _16
REMARK    9  A    between atoms: _19  and  _21
REMARK   10  A    between atoms: _21  and  _22
REMARK   11  A    between atoms: _21  and  _24
REMARK   12  A    between atoms: _24  and  _25
REMARK   13  A    between atoms: _25  and  _26
REMARK   14  A    between atoms: _29  and  _31
REMARK   15  A    between atoms: _31  and  _32
REMARK   16  A    between atoms: _31  and  _34
REMARK   17  A    between atoms: _34  and  _35
REMARK   18  A    between atoms: _38  and  _40
REMARK   19  A    between atoms: _40  and  _41
REMARK   20  A    between atoms: _40  and  _43
REMARK   21  A    between atoms: _43  and  _44
REMARK   22  A    between atoms: _47  and  _49
REMARK   23  A    between atoms: _49  and  _50
REMARK   24  A    between atoms: _49  and  _52
REMARK   25  A    between atoms: _52  and  _53
REMARK   26  A    between atoms: _55  and  _57
REMARK   27  A    between atoms: _57  and  _58
REMARK   28  A    between atoms: _57  and  _60
REMARK   29  A    between atoms: _60  and  _61
REMARK   30  A    between atoms: _66  and  _68
REMARK   31  A    between atoms: _68  and  _69
REMARK   32  A    between atoms: _68  and  _71
REMARK   33  A    between atoms: _71  and  _72
REMARK   34  A    between atoms: _74  and  _76
REMARK   35  A    between atoms: _76  and  _77
REMARK   36  A    between atoms: _76  and  _79
REMARK   37  A    between atoms: _79  and  _80
REMARK   38  A    between atoms: _82  and  _84
REMARK   39  A    between atoms: _84  and  _85
REMARK   40  A    between atoms: _84  and  _87
REMARK   41  A    between atoms: _87  and  _88
REMARK   42  A    between atoms: _91  and  _93
REMARK   43  A    between atoms: _93  and  _94
REMARK   44  A    between atoms: _97  and  _99
REMARK   45  A    between atoms: _99  and  _100
REMARK   46  A    between atoms: _99  and  _102
REMARK   47  A    between atoms: _102  and  _103
REMARK   48  A    between atoms: _106  and  _108
REMARK   49  A    between atoms: _108  and  _109
REMARK   50  A    between atoms: _108  and  _111
REMARK   51  A    between atoms: _111  and  _112
REMARK   52  A    between atoms: _115  and  _117
REMARK   53  A    between atoms: _117  and  _118
REMARK   54  A    between atoms: _117  and  _120
REMARK   55  A    between atoms: _120  and  _121
REMARK   56  A    between atoms: _121  and  _122
REMARK   57  A    between atoms: _122  and  _123
REMARK   58  A    between atoms: _123  and  _124
REMARK   59  A    between atoms: _128  and  _130
REMARK   60  A    between atoms: _130  and  _131
REMARK   61  A    between atoms: _130  and  _133
REMARK   62  A    between atoms: _133  and  _134
REMARK   63  A    between atoms: _137  and  _139
REMARK   64  A    between atoms: _139  and  _140
REMARK   65  A    between atoms: _139  and  _142
REMARK   66  A    between atoms: _142  and  _143
REMARK   67  A    between atoms: _143  and  _144
REMARK   68  A    between atoms: _147  and  _149
REMARK   69  A    between atoms: _149  and  _150
REMARK   70  A    between atoms: _149  and  _152
REMARK   71  A    between atoms: _152  and  _153
REMARK   72  A    between atoms: _156  and  _158
REMARK   73  A    between atoms: _158  and  _159
REMARK   74  A    between atoms: _158  and  _161
REMARK   75  A    between atoms: _164  and  _166
REMARK   76  A    between atoms: _166  and  _167
REMARK   77  A    between atoms: _166  and  _169
REMARK   78  A    between atoms: _169  and  _170
REMARK   79  A    between atoms: _173  and  _175
REMARK   80  A    between atoms: _175  and  _176
REMARK   81  A    between atoms: _175  and  _178
REMARK   82  A    between atoms: _178  and  _179
REMARK   83  A    between atoms: _182  and  _184
REMARK   84  A    between atoms: _184  and  _185
REMARK   85  A    between atoms: _187  and  _189
REMARK   86  A    between atoms: _189  and  _190
REMARK   87  A    between atoms: _189  and  _192
REMARK   88  A    between atoms: _192  and  _193
REMARK   89  A    between atoms: _196  and  _198
REMARK   90  A    between atoms: _198  and  _199
REMARK   91  A    between atoms: _201  and  _203
REMARK   92  A    between atoms: _203  and  _204
REMARK   93  A    between atoms: _203  and  _206
REMARK   94  A    between atoms: _206  and  _207
REMARK   95  A    between atoms: _207  and  _208
REMARK   96  A    between atoms: _210  and  _212
REMARK   97  A    between atoms: _212  and  _213
REMARK   98  A    between atoms: _212  and  _215
REMARK   99  A    between atoms: _215  and  _216
REMARK  100  A    between atoms: _219  and  _221
REMARK  101  A    between atoms: _221  and  _222
REMARK  102  A    between atoms: _221  and  _224
REMARK  103  A    between atoms: _224  and  _225
REMARK  104  A    between atoms: _228  and  _230
REMARK  105  A    between atoms: _230  and  _231
REMARK  106  A    between atoms: _230  and  _233
REMARK  107  A    between atoms: _233  and  _234
REMARK  108  A    between atoms: _237  and  _239
REMARK  109  A    between atoms: _239  and  _240
REMARK  110  A    between atoms: _239  and  _242
REMARK  111  A    between atoms: _242  and  _243
REMARK  112  A    between atoms: _248  and  _250
REMARK  113  A    between atoms: _250  and  _251
REMARK  114  A    between atoms: _250  and  _253
REMARK  115  A    between atoms: _253  and  _254
REMARK  116  A    between atoms: _259  and  _261
REMARK  117  A    between atoms: _261  and  _262
REMARK  118  A    between atoms: _261  and  _264
REMARK  119  A    between atoms: _264  and  _265
REMARK  120  A    between atoms: _268  and  _270
REMARK  121  A    between atoms: _270  and  _271
REMARK  122  A    between atoms: _273  and  _275
REMARK  123  A    between atoms: _275  and  _276
REMARK  124  A    between atoms: _275  and  _278
REMARK  125  A    between atoms: _278  and  _279
REMARK  126  A    between atoms: _282  and  _284
REMARK  127  A    between atoms: _284  and  _285
REMARK  128  A    between atoms: _284  and  _287
REMARK  129  A    between atoms: _287  and  _288
REMARK  130  A    between atoms: _291  and  _293
REMARK  131  A    between atoms: _293  and  _294
REMARK  132  A    between atoms: _297  and  _299
REMARK  133  A    between atoms: _299  and  _300
REMARK  134  A    between atoms: _299  and  _302
REMARK  135  A    between atoms: _302  and  _303
REMARK  136  A    between atoms: _303  and  _304
REMARK  137  A    between atoms: _304  and  _305
REMARK  138  A    between atoms: _305  and  _306
REMARK  139  A    between atoms: _310  and  _312
REMARK  140  A    between atoms: _312  and  _313
REMARK  141  A    between atoms: _312  and  _315
REMARK  142  A    between atoms: _315  and  _316
REMARK  143  A    between atoms: _318  and  _320
REMARK  144  A    between atoms: _320  and  _321
REMARK  145  A    between atoms: _323  and  _325
REMARK  146  A    between atoms: _325  and  _326
REMARK  147  A    between atoms: _325  and  _328
REMARK  148  A    between atoms: _328  and  _329
REMARK  149  A    between atoms: _332  and  _334
REMARK  150  A    between atoms: _334  and  _335
REMARK  151  A    between atoms: _334  and  _337
REMARK  152  A    between atoms: _337  and  _338
REMARK  153  A    between atoms: _344  and  _346
REMARK  154  A    between atoms: _346  and  _347
REMARK  155  A    between atoms: _349  and  _351
REMARK  156  A    between atoms: _351  and  _352
REMARK  157  A    between atoms: _351  and  _354
REMARK  158  A    between atoms: _357  and  _359
REMARK  159  A    between atoms: _359  and  _360
REMARK  160  A    between atoms: _362  and  _364
REMARK  161  A    between atoms: _364  and  _365
REMARK  162  A    between atoms: _364  and  _367
REMARK  163  A    between atoms: _367  and  _368
REMARK  164  A    between atoms: _374  and  _376
REMARK  165  A    between atoms: _376  and  _377
REMARK  166  A    between atoms: _376  and  _379
REMARK  167  A    between atoms: _379  and  _380
REMARK  168  A    between atoms: _385  and  _386
REMARK  169  A    between atoms: _388  and  _390
REMARK  170  A    between atoms: _390  and  _391
REMARK  171  A    between atoms: _390  and  _393
REMARK  172  A    between atoms: _393  and  _394
REMARK  173  A    between atoms: _396  and  _398
REMARK  174  A    between atoms: _398  and  _399
REMARK  175  A    between atoms: _398  and  _401
REMARK  176  A    between atoms: _404  and  _406
REMARK  177  A    between atoms: _406  and  _407
REMARK  178  A    between atoms: _406  and  _409
REMARK  179  A    between atoms: _409  and  _410
REMARK  180  A    between atoms: _413  and  _415
REMARK  181  A    between atoms: _415  and  _416
REMARK  182  A    between atoms: _415  and  _418
REMARK  183  A    between atoms: _421  and  _423
REMARK  184  A    between atoms: _423  and  _424
REMARK  185  A    between atoms: _423  and  _426
REMARK  186  A    between atoms: _426  and  _427
REMARK  187  A    between atoms: _430  and  _432
REMARK  188  A    between atoms: _432  and  _433
REMARK  189  A    between atoms: _432  and  _435
REMARK  190  A    between atoms: _435  and  _436
REMARK  191  A    between atoms: _439  and  _441
REMARK  192  A    between atoms: _441  and  _442
REMARK  193  A    between atoms: _441  and  _444
REMARK  194  A    between atoms: _444  and  _445
REMARK  195  A    between atoms: _445  and  _446
REMARK  196  A    between atoms: _446  and  _447
REMARK  197  A    between atoms: _447  and  _448
REMARK  198  A    between atoms: _452  and  _454
REMARK  199  A    between atoms: _454  and  _455
REMARK  200  A    between atoms: _454  and  _457
REMARK  201  A    between atoms: _457  and  _458
REMARK  202  A    between atoms: _463  and  _465
REMARK  203  A    between atoms: _465  and  _466
REMARK  204  A    between atoms: _465  and  _468
REMARK  205  A    between atoms: _468  and  _469
REMARK  206  A    between atoms: _479  and  _481
REMARK  207  A    between atoms: _481  and  _482
REMARK  208  A    between atoms: _484  and  _486
REMARK  209  A    between atoms: _486  and  _487
REMARK  210  A    between atoms: _486  and  _489
REMARK  211  A    between atoms: _489  and  _490
REMARK  212  A    between atoms: _493  and  _495
REMARK  213  A    between atoms: _495  and  _496
REMARK  214  A    between atoms: _495  and  _498
REMARK  215  A    between atoms: _498  and  _499
REMARK  216  A    between atoms: _499  and  _500
REMARK  217  A    between atoms: _500  and  _501
REMARK  218  A    between atoms: _501  and  _502
REMARK  219  A    between atoms: _506  and  _508
REMARK  220  A    between atoms: _508  and  _509
REMARK  221  A    between atoms: _508  and  _511
REMARK                            x       y       z     vdW  Elec       q    Type
REMARK                         _______ _______ _______ _____ _____    ______ ____
ROOT
ATOM      1  CA  ILE A   6     -22.079  21.313 -31.205  0.00  0.00    +0.149 C 
ENDROOT
BRANCH   1   4
ATOM      2  C   THR A   5     -20.850  20.161 -29.419  0.00  0.00    +0.243 C 
ATOM      3  O   THR A   5     -21.601  20.608 -28.558  0.00  0.00    -0.273 OA
ATOM      4  N   ILE A   6     -20.999  20.438 -30.718  0.00  0.00    -0.297 N 
ATOM      5  H   ILE A   6     -20.335  20.025 -31.403  0.00  0.00    +0.150 HD
BRANCH   2   6
ATOM      6  CA  THR A   5     -19.745  19.173 -29.042  0.00  0.00    +0.176 C 
BRANCH   6   8
ATOM      7  C   GLY A   4     -18.270  19.156 -27.099  0.00  0.00    +0.243 C 
ATOM      8  N   THR A   5     -19.515  19.139 -27.598  0.00  0.00    -0.295 N 
ATOM      9  H   THR A   5     -20.327  19.101 -26.950  0.00  0.00    +0.150 HD
ATOM     10  O   GLY A   4     -17.252  19.266 -27.795  0.00  0.00    -0.273 OA
BRANCH   7  11
ATOM     11  CA  GLY A   4     -18.140  19.003 -25.605  0.00  0.00    +0.176 C 
BRANCH  11  14
ATOM     12  C   LEU A   3     -19.584  20.287 -24.135  0.00  0.00    +0.241 C 
ATOM     13  O   LEU A   3     -18.881  21.280 -24.235  0.00  0.00    -0.273 OA
ATOM     14  N   GLY A   4     -19.357  19.173 -24.815  0.00  0.00    -0.295 N 
ATOM     15  H   GLY A   4     -20.058  18.405 -24.786  0.00  0.00    +0.150 HD
BRANCH  12  16
ATOM     16  CA  LEU A   3     -20.839  20.323 -23.265  0.00  0.00    +0.149 C 
BRANCH  16  18
ATOM     17  C   ASN A   2     -22.878  19.601 -24.366  0.00  0.00    +0.241 C 
ATOM     18  N   LEU A   3     -21.801  19.288 -23.597  0.00  0.00    -0.297 N 
ATOM     19  H   LEU A   3     -21.668  18.317 -23.250  0.00  0.00    +0.150 HD
ATOM     20  O   ASN A   2     -23.061  20.721 -24.875  0.00  0.00    -0.273 OA
BRANCH  17  21
ATOM     21  CA  ASN A   2     -23.876  18.522 -24.588  0.00  0.00    +0.158 C 
BRANCH  21  23
ATOM     22  C   ASN A   1     -22.605  16.860 -25.826  0.00  0.00    +0.239 C 
ATOM     23  N   ASN A   2     -23.317  17.177 -24.725  0.00  0.00    -0.297 N 
ATOM     24  H   ASN A   2     -23.468  16.469 -23.978  0.00  0.00    +0.150 HD
ATOM     25  O   ASN A   1     -22.295  17.699 -26.680  0.00  0.00    -0.274 OA
BRANCH  22  26
ATOM     26  CA  ASN A   1     -22.155  15.402 -25.938  0.00  0.00    +0.154 C 
BRANCH  26  27
ATOM     27  N   ASN A   1     -21.529  14.911 -24.705  0.00  0.00    -0.238 NA
ATOM     28  H   ASN A   1     -21.983  14.132 -24.187  0.00  0.00    +0.142 HD
ENDBRANCH  26  27
BRANCH  26  29
ATOM     29  CB  ASN A   1     -23.357  14.540 -26.343  0.00  0.00    +0.111 C 
BRANCH  29  30
ATOM     30  CG  ASN A   1     -23.023  13.181 -26.899  0.00  0.00    +0.221 C 
ATOM     31  OD1 ASN A   1     -23.783  12.214 -26.733  0.00  0.00    -0.275 OA
ATOM     32  ND2 ASN A   1     -21.929  13.092 -27.630  0.00  0.00    -0.329 N 
ATOM     33 HD21 ASN A   1     -21.314  13.922 -27.749  0.00  0.00    +0.145 HD
ATOM     34 HD22 ASN A   1     -21.681  12.192 -28.088  0.00  0.00    +0.145 HD
ENDBRANCH  29  30
ENDBRANCH  26  29
ENDBRANCH  22  26
ENDBRANCH  21  23
BRANCH  21  35
ATOM     35  CB  ASN A   2     -24.879  18.592 -23.430  0.00  0.00    +0.114 C 
BRANCH  35  36
ATOM     36  CG  ASN A   2     -26.169  17.871 -23.666  0.00  0.00    +0.222 C 
ATOM     37  ND2 ASN A   2     -26.984  17.761 -22.598  0.00  0.00    -0.329 N 
ATOM     38 HD21 ASN A   2     -26.745  18.245 -21.709  0.00  0.00    +0.145 HD
ATOM     39 HD22 ASN A   2     -27.852  17.192 -22.663  0.00  0.00    +0.145 HD
ATOM     40  OD1 ASN A   2     -26.400  17.316 -24.757  0.00  0.00    -0.275 OA
ENDBRANCH  35  36
ENDBRANCH  21  35
ENDBRANCH  17  21
ENDBRANCH  16  18
BRANCH  16  41
ATOM     41  CB  LEU A   3     -20.500  20.253 -21.760  0.00  0.00    +0.029 C 
BRANCH  41  42
ATOM     42  CG  LEU A   3     -21.540  20.889 -20.812  0.00  0.00    +0.002 C 
ATOM     43  CD2 LEU A   3     -21.024  20.996 -19.415  0.00  0.00    +0.000 C 
ATOM     44  CD1 LEU A   3     -22.853  20.114 -20.752  0.00  0.00    +0.000 C 
ENDBRANCH  41  42
ENDBRANCH  16  41
ENDBRANCH  12  16
ENDBRANCH  11  14
ENDBRANCH   7  11
ENDBRANCH   6   8
BRANCH   6  45
ATOM     45  CB  THR A   5     -20.113  17.766 -29.553  0.00  0.00    +0.137 C 
ATOM     46  CG2 THR A   5     -19.210  16.643 -29.020  0.00  0.00    +0.034 C 
BRANCH  45  47
ATOM     47  OG1 THR A   5     -21.465  17.475 -29.232  0.00  0.00    -0.382 OA
ATOM     48  HG1 THR A   5     -21.584  17.508 -28.250  0.00  0.00    +0.210 HD
ENDBRANCH  45  47
ENDBRANCH   6  45
ENDBRANCH   2   6
ENDBRANCH   1   4
BRANCH   1  49
ATOM     49  C   ILE A   6     -23.411  20.660 -30.870  0.00  0.00    +0.241 C 
ATOM     50  O   ILE A   6     -24.319  21.348 -30.424  0.00  0.00    -0.273 OA
ATOM     51  N   ALA A   7     -23.530  19.336 -31.046  0.00  0.00    -0.297 N 
ATOM     52  H   ALA A   7     -22.718  18.804 -31.418  0.00  0.00    +0.150 HD
BRANCH  51  53
ATOM     53  CA  ALA A   7     -24.768  18.613 -30.731  0.00  0.00    +0.149 C 
ATOM     54  CB  ALA A   7     -24.941  18.462 -29.217  0.00  0.00    +0.031 C 
BRANCH  53  55
ATOM     55  C   ALA A   7     -25.988  19.299 -31.420  0.00  0.00    +0.241 C 
ATOM     56  N   LYS A   8     -27.052  19.684 -30.676  0.00  0.00    -0.297 N 
ATOM     57  H   LYS A   8     -27.014  19.515 -29.651  0.00  0.00    +0.150 HD
ATOM     58  O   ALA A   7     -25.916  19.491 -32.628  0.00  0.00    -0.273 OA
BRANCH  56  59
ATOM     59  CA  LYS A   8     -28.258  20.326 -31.222  0.00  0.00    +0.149 C 
BRANCH  59  60
ATOM     60  C   LYS A   8     -28.145  21.840 -31.192  0.00  0.00    +0.241 C 
ATOM     61  N   SER A   9     -27.008  22.377 -30.743  0.00  0.00    -0.295 N 
ATOM     62  H   SER A   9     -26.211  21.757 -30.494  0.00  0.00    +0.150 HD
ATOM     63  O   LYS A   8     -29.126  22.534 -31.507  0.00  0.00    -0.273 OA
BRANCH  61  64
ATOM     64  CA  SER A   9     -26.869  23.816 -30.598  0.00  0.00    +0.178 C 
BRANCH  64  65
ATOM     65  C   SER A   9     -26.760  24.591 -31.894  0.00  0.00    +0.243 C 
ATOM     66  N   GLY A  10     -26.962  25.900 -31.772  0.00  0.00    -0.295 N 
ATOM     67  H   GLY A  10     -27.265  26.274 -30.850  0.00  0.00    +0.150 HD
ATOM     68  O   SER A   9     -26.416  24.044 -32.948  0.00  0.00    -0.273 OA
BRANCH  66  69
ATOM     69  CA  GLY A  10     -26.776  26.828 -32.874  0.00  0.00    +0.176 C 
BRANCH  69  70
ATOM     70  C   GLY A  10     -25.404  27.480 -32.826  0.00  0.00    +0.243 C 
ATOM     71  N   THR A  11     -24.345  26.740 -32.390  0.00  0.00    -0.296 N 
ATOM     72  H   THR A  11     -24.513  25.760 -32.085  0.00  0.00    +0.150 HD
ATOM     73  O   GLY A  10     -25.268  28.640 -33.218  0.00  0.00    -0.273 OA
BRANCH  71  74
ATOM     74  CA  THR A  11     -22.977  27.271 -32.334  0.00  0.00    +0.164 C 
BRANCH  74  75
ATOM     75  CB  THR A  11     -21.985  26.158 -31.983  0.00  0.00    +0.136 C 
ATOM     76  CG2 THR A  11     -20.529  26.627 -32.075  0.00  0.00    +0.034 C 
BRANCH  75  77
ATOM     77  OG1 THR A  11     -22.205  25.747 -30.630  0.00  0.00    -0.382 OA
ATOM     78  HG1 THR A  11     -23.131  25.411 -30.535  0.00  0.00    +0.210 HD
ENDBRANCH  75  77
ENDBRANCH  74  75
BRANCH  74  79
ATOM     79  C   THR A  11     -22.565  27.954 -33.660  0.00  0.00    +0.229 C 
ATOM     80  O   THR A  11     -22.068  29.094 -33.659  0.00  0.00    -0.286 OA
ENDBRANCH  74  79
ENDBRANCH  71  74
ENDBRANCH  69  70
ENDBRANCH  66  69
ENDBRANCH  64  65
BRANCH  64  81
ATOM     81  CB  SER A   9     -25.663  24.120 -29.725  0.00  0.00    +0.166 C 
BRANCH  81  82
ATOM     82  OG  SER A   9     -24.467  24.035 -30.492  0.00  0.00    -0.380 OA
ATOM     83  H   SER A   9     -24.378  23.121 -30.862  0.00  0.00    +0.211 HD
ENDBRANCH  81  82
ENDBRANCH  64  81
ENDBRANCH  61  64
ENDBRANCH  59  60
BRANCH  59  84
ATOM     84  CB  LYS A   8     -29.469  19.969 -30.346  0.00  0.00    +0.029 C 
BRANCH  84  85
ATOM     85  CG  LYS A   8     -29.888  18.515 -30.365  0.00  0.00    +0.000 C 
BRANCH  85  86
ATOM     86  CD  LYS A   8     -31.299  18.325 -29.790  0.00  0.00    -0.024 C 
BRANCH  86  87
ATOM     87  CE  LYS A   8     -31.431  18.625 -28.311  0.00  0.00    -0.086 C 
BRANCH  87  88
ATOM     88  NZ  LYS A   8     -32.832  18.458 -27.844  0.00  0.00    +0.380 N 
ATOM     89  HZ1 LYS A   8     -32.885  18.671 -26.828  0.00  0.00    -0.089 HD
ATOM     90  HZ2 LYS A   8     -33.137  17.478 -28.010  0.00  0.00    -0.089 HD
ATOM     91  HZ3 LYS A   8     -33.451  19.108 -28.369  0.00  0.00    -0.089 HD
ENDBRANCH  87  88
ENDBRANCH  86  87
ENDBRANCH  85  86
ENDBRANCH  84  85
ENDBRANCH  59  84
ENDBRANCH  56  59
ENDBRANCH  53  55
ENDBRANCH  51  53
ENDBRANCH   1  49
BRANCH   1  92
ATOM     92  CB  ILE A   6     -21.935  21.552 -32.732  0.00  0.00    +0.027 C 
ATOM     93  CG2 ILE A   6     -23.241  22.119 -33.354  0.00  0.00    +0.002 C 
BRANCH  92  94
ATOM     94  CG1 ILE A   6     -20.761  22.508 -33.005  0.00  0.00    +0.002 C 
ATOM     95  CD1 ILE A   6     -20.488  22.705 -34.559  0.00  0.00    +0.000 C 
ENDBRANCH  92  94
ENDBRANCH   1  92
TORSDOF 41
REMARK  Name = ../refined-set-2016/3wha/3wha_pocket.pdb
REMARK  221 active torsions:
REMARK  status: ('A' for Active; 'I' for Inactive)
REMARK    1  A    between atoms: _1  and  _3
REMARK    2  A    between atoms: _3  and  _4
REMARK    3  A    between atoms: _3  and  _6
REMARK    4  A    between atoms: _6  and  _7
REMARK    5  A    between atoms: _10  and  _12
REMARK    6  A    between atoms: _12  and  _13
REMARK    7  A    between atoms: _12  and  _15
REMARK    8  A    between atoms: _15  and  _16
REMARK    9  A    between atoms: _19  and  _21
REMARK   10  A    between atoms: _21  and  _22
REMARK   11  A    between atoms: _21  and  _24
REMARK   12  A    between atoms: _24  and  _25
REMARK   13  A    between atoms: _25  and  _26
REMARK   14  A    between atoms: _29  and  _31
REMARK   15  A    between atoms: _31  and  _32
REMARK   16  A    between atoms: _31  and  _34
REMARK   17  A    between atoms: _34  and  _35
REMARK   18  A    between atoms: _38  and  _40
REMARK   19  A    between atoms: _40  and  _41
REMARK   20  A    between atoms: _40  and  _43
REMARK   21  A    between atoms: _43  and  _44
REMARK   22  A    between atoms: _47  and  _49
REMARK   23  A    between atoms: _49  and  _50
REMARK   24  A    between atoms: _49  and  _52
REMARK   25  A    between atoms: _52  and  _53
REMARK   26  A    between atoms: _55  and  _57
REMARK   27  A    between atoms: _57  and  _58
REMARK   28  A    between atoms: _57  and  _60
REMARK   29  A    between atoms: _60  and  _61
REMARK   30  A    between atoms: _66  and  _68
REMARK   31  A    between atoms: _68  and  _69
REMARK   32  A    between atoms: _68  and  _71
REMARK   33  A    between atoms: _71  and  _72
REMARK   34  A    between atoms: _74  and  _76
REMARK   35  A    between atoms: _76  and  _77
REMARK   36  A    between atoms: _76  and  _79
REMARK   37  A    between atoms: _79  and  _80
REMARK   38  A    between atoms: _82  and  _84
REMARK   39  A    between atoms: _84  and  _85
REMARK   40  A    between atoms: _84  and  _87
REMARK   41  A    between atoms: _87  and  _88
REMARK   42  A    between atoms: _91  and  _93
REMARK   43  A    between atoms: _93  and  _94
REMARK   44  A    between atoms: _97  and  _99
REMARK   45  A    between atoms: _99  and  _100
REMARK   46  A    between atoms: _99  and  _102
REMARK   47  A    between atoms: _102  and  _103
REMARK   48  A    between atoms: _106  and  _108
REMARK   49  A    between atoms: _108  and  _109
REMARK   50  A    between atoms: _108  and  _111
REMARK   51  A    between atoms: _111  and  _112
REMARK   52  A    between atoms: _115  and  _117
REMARK   53  A    between atoms: _117  and  _118
REMARK   54  A    between atoms: _117  and  _120
REMARK   55  A    between atoms: _120  and  _121
REMARK   56  A    between atoms: _121  and  _122
REMARK   57  A    between atoms: _122  and  _123
REMARK   58  A    between atoms: _123  and  _124
REMARK   59  A    between atoms: _128  and  _130
REMARK   60  A    between atoms: _130  and  _131
REMARK   61  A    between atoms: _130  and  _133
REMARK   62  A    between atoms: _133  and  _134
REMARK   63  A    between atoms: _137  and  _139
REMARK   64  A    between atoms: _139  and  _140
REMARK   65  A    between atoms: _139  and  _142
REMARK   66  A    between atoms: _142  and  _143
REMARK   67  A    between atoms: _143  and  _144
REMARK   68  A    between atoms: _147  and  _149
REMARK   69  A    between atoms: _149  and  _150
REMARK   70  A    between atoms: _149  and  _152
REMARK   71  A    between atoms: _152  and  _153
REMARK   72  A    between atoms: _156  and  _158
REMARK   73  A    between atoms: _158  and  _159
REMARK   74  A    between atoms: _158  and  _161
REMARK   75  A    between atoms: _164  and  _166
REMARK   76  A    between atoms: _166  and  _167
REMARK   77  A    between atoms: _166  and  _169
REMARK   78  A    between atoms: _169  and  _170
REMARK   79  A    between atoms: _173  and  _175
REMARK   80  A    between atoms: _175  and  _176
REMARK   81  A    between atoms: _175  and  _178
REMARK   82  A    between atoms: _178  and  _179
REMARK   83  A    between atoms: _182  and  _184
REMARK   84  A    between atoms: _184  and  _185
REMARK   85  A    between atoms: _187  and  _189
REMARK   86  A    between atoms: _189  and  _190
REMARK   87  A    between atoms: _189  and  _192
REMARK   88  A    between atoms: _192  and  _193
REMARK   89  A    between atoms: _196  and  _198
REMARK   90  A    between atoms: _198  and  _199
REMARK   91  A    between atoms: _201  and  _203
REMARK   92  A    between atoms: _203  and  _204
REMARK   93  A    between atoms: _203  and  _206
REMARK   94  A    between atoms: _206  and  _207
REMARK   95  A    between atoms: _207  and  _208
REMARK   96  A    between atoms: _210  and  _212
REMARK   97  A    between atoms: _212  and  _213
REMARK   98  A    between atoms: _212  and  _215
REMARK   99  A    between atoms: _215  and  _216
REMARK  100  A    between atoms: _219  and  _221
REMARK  101  A    between atoms: _221  and  _222
REMARK  102  A    between atoms: _221  and  _224
REMARK  103  A    between atoms: _224  and  _225
REMARK  104  A    between atoms: _228  and  _230
REMARK  105  A    between atoms: _230  and  _231
REMARK  106  A    between atoms: _230  and  _233
REMARK  107  A    between atoms: _233  and  _234
REMARK  108  A    between atoms: _237  and  _239
REMARK  109  A    between atoms: _239  and  _240
REMARK  110  A    between atoms: _239  and  _242
REMARK  111  A    between atoms: _242  and  _243
REMARK  112  A    between atoms: _248  and  _250
REMARK  113  A    between atoms: _250  and  _251
REMARK  114  A    between atoms: _250  and  _253
REMARK  115  A    between atoms: _253  and  _254
REMARK  116  A    between atoms: _259  and  _261
REMARK  117  A    between atoms: _261  and  _262
REMARK  118  A    between atoms: _261  and  _264
REMARK  119  A    between atoms: _264  and  _265
REMARK  120  A    between atoms: _268  and  _270
REMARK  121  A    between atoms: _270  and  _271
REMARK  122  A    between atoms: _273  and  _275
REMARK  123  A    between atoms: _275  and  _276
REMARK  124  A    between atoms: _275  and  _278
REMARK  125  A    between atoms: _278  and  _279
REMARK  126  A    between atoms: _282  and  _284
REMARK  127  A    between atoms: _284  and  _285
REMARK  128  A    between atoms: _284  and  _287
REMARK  129  A    between atoms: _287  and  _288
REMARK  130  A    between atoms: _291  and  _293
REMARK  131  A    between atoms: _293  and  _294
REMARK  132  A    between atoms: _297  and  _299
REMARK  133  A    between atoms: _299  and  _300
REMARK  134  A    between atoms: _299  and  _302
REMARK  135  A    between atoms: _302  and  _303
REMARK  136  A    between atoms: _303  and  _304
REMARK  137  A    between atoms: _304  and  _305
REMARK  138  A    between atoms: _305  and  _306
REMARK  139  A    between atoms: _310  and  _312
REMARK  140  A    between atoms: _312  and  _313
REMARK  141  A    between atoms: _312  and  _315
REMARK  142  A    between atoms: _315  and  _316
REMARK  143  A    between atoms: _318  and  _320
REMARK  144  A    between atoms: _320  and  _321
REMARK  145  A    between atoms: _323  and  _325
REMARK  146  A    between atoms: _325  and  _326
REMARK  147  A    between atoms: _325  and  _328
REMARK  148  A    between atoms: _328  and  _329
REMARK  149  A    between atoms: _332  and  _334
REMARK  150  A    between atoms: _334  and  _335
REMARK  151  A    between atoms: _334  and  _337
REMARK  152  A    between atoms: _337  and  _338
REMARK  153  A    between atoms: _344  and  _346
REMARK  154  A    between atoms: _346  and  _347
REMARK  155  A    between atoms: _349  and  _351
REMARK  156  A    between atoms: _351  and  _352
REMARK  157  A    between atoms: _351  and  _354
REMARK  158  A    between atoms: _357  and  _359
REMARK  159  A    between atoms: _359  and  _360
REMARK  160  A    between atoms: _362  and  _364
REMARK  161  A    between atoms: _364  and  _365
REMARK  162  A    between atoms: _364  and  _367
REMARK  163  A    between atoms: _367  and  _368
REMARK  164  A    between atoms: _374  and  _376
REMARK  165  A    between atoms: _376  and  _377
REMARK  166  A    between atoms: _376  and  _379
REMARK  167  A    between atoms: _379  and  _380
REMARK  168  A    between atoms: _385  and  _386
REMARK  169  A    between atoms: _388  and  _390
REMARK  170  A    between atoms: _390  and  _391
REMARK  171  A    between atoms: _390  and  _393
REMARK  172  A    between atoms: _393  and  _394
REMARK  173  A    between atoms: _396  and  _398
REMARK  174  A    between atoms: _398  and  _399
REMARK  175  A    between atoms: _398  and  _401
REMARK  176  A    between atoms: _404  and  _406
REMARK  177  A    between atoms: _406  and  _407
REMARK  178  A    between atoms: _406  and  _409
REMARK  179  A    between atoms: _409  and  _410
REMARK  180  A    between atoms: _413  and  _415
REMARK  181  A    between atoms: _415  and  _416
REMARK  182  A    between atoms: _415  and  _418
REMARK  183  A    between atoms: _421  and  _423
REMARK  184  A    between atoms: _423  and  _424
REMARK  185  A    between atoms: _423  and  _426
REMARK  186  A    between atoms: _426  and  _427
REMARK  187  A    between atoms: _430  and  _432
REMARK  188  A    between atoms: _432  and  _433
REMARK  189  A    between atoms: _432  and  _435
REMARK  190  A    between atoms: _435  and  _436
REMARK  191  A    between atoms: _439  and  _441
REMARK  192  A    between atoms: _441  and  _442
REMARK  193  A    between atoms: _441  and  _444
REMARK  194  A    between atoms: _444  and  _445
REMARK  195  A    between atoms: _445  and  _446
REMARK  196  A    between atoms: _446  and  _447
REMARK  197  A    between atoms: _447  and  _448
REMARK  198  A    between atoms: _452  and  _454
REMARK  199  A    between atoms: _454  and  _455
REMARK  200  A    between atoms: _454  and  _457
REMARK  201  A    between atoms: _457  and  _458
REMARK  202  A    between atoms: _463  and  _465
REMARK  203  A    between atoms: _465  and  _466
REMARK  204  A    between atoms: _465  and  _468
REMARK  205  A    between atoms: _468  and  _469
REMARK  206  A    between atoms: _479  and  _481
REMARK  207  A    between atoms: _481  and  _482
REMARK  208  A    between atoms: _484  and  _486
REMARK  209  A    between atoms: _486  and  _487
REMARK  210  A    between atoms: _486  and  _489
REMARK  211  A    between atoms: _489  and  _490
REMARK  212  A    between atoms: _493  and  _495
REMARK  213  A    between atoms: _495  and  _496
REMARK  214  A    between atoms: _495  and  _498
REMARK  215  A    between atoms: _498  and  _499
REMARK  216  A    between atoms: _499  and  _500
REMARK  217  A    between atoms: _500  and  _501
REMARK  218  A    between atoms: _501  and  _502
REMARK  219  A    between atoms: _506  and  _508
REMARK  220  A    between atoms: _508  and  _509
REMARK  221  A    between atoms: _508  and  _511
REMARK                            x       y       z     vdW  Elec       q    Type
REMARK                         _______ _______ _______ _____ _____    ______ ____
ROOT
ATOM      1  C   GLY A   4     -25.190  29.799 -22.241  0.00  0.00    +0.243 C 
ATOM      2  O   GLY A   4     -24.614  30.663 -21.586  0.00  0.00    -0.273 OA
ATOM      3  N   PHE A   5     -25.058  28.495 -22.004  0.00  0.00    -0.297 N 
ATOM      4  H   PHE A   5     -25.595  27.812 -22.575  0.00  0.00    +0.150 HD
ENDROOT
BRANCH   3   5
ATOM      5  CA  PHE A   5     -24.157  28.009 -20.939  0.00  0.00    +0.153 C 
BRANCH   5   6
ATOM      6  C   PHE A   5     -22.775  28.662 -21.036  0.00  0.00    +0.241 C 
ATOM      7  O   PHE A   5     -22.173  29.051 -20.024  0.00  0.00    -0.273 OA
ATOM      8  N   TYR A   6     -22.249  28.745 -22.272  0.00  0.00    -0.297 N 
ATOM      9  H   TYR A   6     -22.812  28.456 -23.097  0.00  0.00    +0.150 HD
BRANCH   8  10
ATOM     10  CA  TYR A   6     -20.885  29.242 -22.454  0.00  0.00    +0.153 C 
BRANCH  10  11
ATOM     11  C   TYR A   6     -20.646  30.702 -22.064  0.00  0.00    +0.241 C 
ATOM     12  O   TYR A   6     -19.498  31.131 -21.848  0.00  0.00    -0.273 OA
ATOM     13  N   SER A   7     -21.749  31.462 -21.881  0.00  0.00    -0.296 N 
ATOM     14  H   SER A   7     -22.683  31.070 -22.117  0.00  0.00    +0.150 HD
BRANCH  13  15
ATOM     15  CA  SER A   7     -21.657  32.807 -21.364  0.00  0.00    +0.166 C 
BRANCH  15  16
ATOM     16  C   SER A   7     -21.113  32.796 -19.919  0.00  0.00    +0.229 C 
ATOM     17  O   SER A   7     -20.662  33.837 -19.429  0.00  0.00    -0.286 OA
ENDBRANCH  15  16
BRANCH  15  18
ATOM     18  CB  SER A   7     -23.011  33.509 -21.413  0.00  0.00    +0.165 C 
BRANCH  18  19
ATOM     19  OG  SER A   7     -23.957  33.019 -20.482  0.00  0.00    -0.380 OA
ATOM     20  H   SER A   7     -24.122  32.059 -20.656  0.00  0.00    +0.211 HD
ENDBRANCH  18  19
ENDBRANCH  15  18
ENDBRANCH  13  15
ENDBRANCH  10  11
BRANCH  10  21
ATOM     21  CB  TYR A   6     -20.341  28.880 -23.823  0.00  0.00    +0.055 C 
BRANCH  21  22
ATOM     22  CG  TYR A   6     -20.348  27.394 -24.106  0.00  0.00    -0.020 A 
ATOM     23  CD2 TYR A   6     -19.304  26.574 -23.684  0.00  0.00    -0.001 A 
ATOM     24  CE2 TYR A   6     -19.330  25.200 -23.914  0.00  0.00    +0.036 A 
ATOM     25  CZ  TYR A   6     -20.406  24.635 -24.590  0.00  0.00    +0.134 A 
ATOM     26  CE1 TYR A   6     -21.452  25.432 -25.015  0.00  0.00    +0.036 A 
ATOM     27  CD1 TYR A   6     -21.424  26.797 -24.755  0.00  0.00    -0.001 A 
BRANCH  25  28
ATOM     28  OH  TYR A   6     -20.517  23.277 -24.823  0.00  0.00    -0.506 OA
ATOM     29  HH  TYR A   6     -19.712  22.817 -24.476  0.00  0.00    +0.292 HD
ENDBRANCH  25  28
ENDBRANCH  21  22
ENDBRANCH  10  21
ENDBRANCH   8  10
ENDBRANCH   5   6
BRANCH   5  30
ATOM     30  CB  PHE A   5     -23.973  26.493 -21.080  0.00  0.00    +0.055 C 
BRANCH  30  31
ATOM     31  CG  PHE A   5     -22.839  25.943 -20.255  0.00  0.00    -0.020 A 
ATOM     32  CD2 PHE A   5     -23.007  25.690 -18.898  0.00  0.00    -0.004 A 
ATOM     33  CE2 PHE A   5     -21.954  25.172 -18.138  0.00  0.00    -0.000 A 
ATOM     34  CZ  PHE A   5     -20.734  24.902 -18.734  0.00  0.00    -0.000 A 
ATOM     35  CE1 PHE A   5     -20.557  25.115 -20.090  0.00  0.00    -0.000 A 
ATOM     36  CD1 PHE A   5     -21.613  25.619 -20.854  0.00  0.00    -0.004 A 
ENDBRANCH  30  31
ENDBRANCH   5  30
ENDBRANCH   3   5
BRANCH   1  37
ATOM     37  CA  GLY A   4     -26.117  30.222 -23.367  0.00  0.00    +0.176 C 
BRANCH  37  39
ATOM     38  C   VAL A   3     -25.100  28.853 -25.112  0.00  0.00    +0.241 C 
ATOM     39  N   GLY A   4     -26.196  29.281 -24.475  0.00  0.00    -0.295 N 
ATOM     40  H   GLY A   4     -27.128  28.933 -24.779  0.00  0.00    +0.150 HD
ATOM     41  O   VAL A   3     -23.954  29.156 -24.756  0.00  0.00    -0.273 OA
BRANCH  38  42
ATOM     42  CA  VAL A   3     -25.285  27.873 -26.237  0.00  0.00    +0.149 C 
BRANCH  42  45
ATOM     43  C   GLY A   2     -27.402  26.830 -26.999  0.00  0.00    +0.243 C 
ATOM     44  O   GLY A   2     -27.025  25.699 -26.730  0.00  0.00    -0.273 OA
ATOM     45  N   VAL A   3     -26.643  27.922 -26.793  0.00  0.00    -0.297 N 
ATOM     46  H   VAL A   3     -27.040  28.851 -27.041  0.00  0.00    +0.150 HD
BRANCH  43  47
ATOM     47  CA  GLY A   2     -28.760  27.035 -27.637  0.00  0.00    +0.176 C 
BRANCH  47  49
ATOM     48  C   PHE A   1     -28.300  28.504 -29.504  0.00  0.00    +0.239 C 
ATOM     49  N   GLY A   2     -28.945  28.279 -28.360  0.00  0.00    -0.296 N 
ATOM     50  H   GLY A   2     -29.588  29.003 -27.981  0.00  0.00    +0.150 HD
ATOM     51  O   PHE A   1     -27.442  27.742 -29.939  0.00  0.00    -0.274 OA
BRANCH  48  52
ATOM     52  CA  PHE A   1     -28.654  29.770 -30.259  0.00  0.00    +0.149 C 
BRANCH  52  53
ATOM     53  N   PHE A   1     -29.417  30.755 -29.522  0.00  0.00    -0.238 NA
ATOM     54  H   PHE A   1     -28.972  31.201 -28.695  0.00  0.00    +0.142 HD
ENDBRANCH  52  53
BRANCH  52  55
ATOM     55  CB  PHE A   1     -27.376  30.415 -30.829  0.00  0.00    +0.053 C 
BRANCH  55  56
ATOM     56  CG  PHE A   1     -27.683  31.626 -31.670  0.00  0.00    -0.020 A 
ATOM     57  CD2 PHE A   1     -27.717  32.892 -31.109  0.00  0.00    -0.004 A 
ATOM     58  CE2 PHE A   1     -27.965  34.026 -31.898  0.00  0.00    -0.000 A 
ATOM     59  CZ  PHE A   1     -28.218  33.882 -33.238  0.00  0.00    -0.000 A 
ATOM     60  CE1 PHE A   1     -28.206  32.638 -33.810  0.00  0.00    -0.000 A 
ATOM     61  CD1 PHE A   1     -27.938  31.501 -33.025  0.00  0.00    -0.004 A 
ENDBRANCH  55  56
ENDBRANCH  52  55
ENDBRANCH  48  52
ENDBRANCH  47  49
ENDBRANCH  43  47
ENDBRANCH  42  45
BRANCH  42  62
ATOM     62  CB  VAL A   3     -24.200  28.056 -27.332  0.00  0.00    +0.027 C 
ATOM     63  CG2 VAL A   3     -24.044  26.803 -28.164  0.00  0.00    +0.002 C 
ATOM     64  CG1 VAL A   3     -24.485  29.270 -28.203  0.00  0.00    +0.002 C 
ENDBRANCH  42  62
ENDBRANCH  38  42
ENDBRANCH  37  39
ENDBRANCH   1  37
TORSDOF 24
REMARK  Name = ../refined-set-2016/3wha/3wha_pocket.pdb
REMARK  221 active torsions:
REMARK  status: ('A' for Active; 'I' for Inactive)
REMARK    1  A    between atoms: _1  and  _3
REMARK    2  A    between atoms: _3  and  _4
REMARK    3  A    between atoms: _3  and  _6
REMARK    4  A    between atoms: _6  and  _7
REMARK    5  A    between atoms: _10  and  _12
REMARK    6  A    between atoms: _12  and  _13
REMARK    7  A    between atoms: _12  and  _15
REMARK    8  A    between atoms: _15  and  _16
REMARK    9  A    between atoms: _19  and  _21
REMARK   10  A    between atoms: _21  and  _22
REMARK   11  A    between atoms: _21  and  _24
REMARK   12  A    between atoms: _24  and  _25
REMARK   13  A    between atoms: _25  and  _26
REMARK   14  A    between atoms: _29  and  _31
REMARK   15  A    between atoms: _31  and  _32
REMARK   16  A    between atoms: _31  and  _34
REMARK   17  A    between atoms: _34  and  _35
REMARK   18  A    between atoms: _38  and  _40
REMARK   19  A    between atoms: _40  and  _41
REMARK   20  A    between atoms: _40  and  _43
REMARK   21  A    between atoms: _43  and  _44
REMARK   22  A    between atoms: _47  and  _49
REMARK   23  A    between atoms: _49  and  _50
REMARK   24  A    between atoms: _49  and  _52
REMARK   25  A    between atoms: _52  and  _53
REMARK   26  A    between atoms: _55  and  _57
REMARK   27  A    between atoms: _57  and  _58
REMARK   28  A    between atoms: _57  and  _60
REMARK   29  A    between atoms: _60  and  _61
REMARK   30  A    between atoms: _66  and  _68
REMARK   31  A    between atoms: _68  and  _69
REMARK   32  A    between atoms: _68  and  _71
REMARK   33  A    between atoms: _71  and  _72
REMARK   34  A    between atoms: _74  and  _76
REMARK   35  A    between atoms: _76  and  _77
REMARK   36  A    between atoms: _76  and  _79
REMARK   37  A    between atoms: _79  and  _80
REMARK   38  A    between atoms: _82  and  _84
REMARK   39  A    between atoms: _84  and  _85
REMARK   40  A    between atoms: _84  and  _87
REMARK   41  A    between atoms: _87  and  _88
REMARK   42  A    between atoms: _91  and  _93
REMARK   43  A    between atoms: _93  and  _94
REMARK   44  A    between atoms: _97  and  _99
REMARK   45  A    between atoms: _99  and  _100
REMARK   46  A    between atoms: _99  and  _102
REMARK   47  A    between atoms: _102  and  _103
REMARK   48  A    between atoms: _106  and  _108
REMARK   49  A    between atoms: _108  and  _109
REMARK   50  A    between atoms: _108  and  _111
REMARK   51  A    between atoms: _111  and  _112
REMARK   52  A    between atoms: _115  and  _117
REMARK   53  A    between atoms: _117  and  _118
REMARK   54  A    between atoms: _117  and  _120
REMARK   55  A    between atoms: _120  and  _121
REMARK   56  A    between atoms: _121  and  _122
REMARK   57  A    between atoms: _122  and  _123
REMARK   58  A    between atoms: _123  and  _124
REMARK   59  A    between atoms: _128  and  _130
REMARK   60  A    between atoms: _130  and  _131
REMARK   61  A    between atoms: _130  and  _133
REMARK   62  A    between atoms: _133  and  _134
REMARK   63  A    between atoms: _137  and  _139
REMARK   64  A    between atoms: _139  and  _140
REMARK   65  A    between atoms: _139  and  _142
REMARK   66  A    between atoms: _142  and  _143
REMARK   67  A    between atoms: _143  and  _144
REMARK   68  A    between atoms: _147  and  _149
REMARK   69  A    between atoms: _149  and  _150
REMARK   70  A    between atoms: _149  and  _152
REMARK   71  A    between atoms: _152  and  _153
REMARK   72  A    between atoms: _156  and  _158
REMARK   73  A    between atoms: _158  and  _159
REMARK   74  A    between atoms: _158  and  _161
REMARK   75  A    between atoms: _164  and  _166
REMARK   76  A    between atoms: _166  and  _167
REMARK   77  A    between atoms: _166  and  _169
REMARK   78  A    between atoms: _169  and  _170
REMARK   79  A    between atoms: _173  and  _175
REMARK   80  A    between atoms: _175  and  _176
REMARK   81  A    between atoms: _175  and  _178
REMARK   82  A    between atoms: _178  and  _179
REMARK   83  A    between atoms: _182  and  _184
REMARK   84  A    between atoms: _184  and  _185
REMARK   85  A    between atoms: _187  and  _189
REMARK   86  A    between atoms: _189  and  _190
REMARK   87  A    between atoms: _189  and  _192
REMARK   88  A    between atoms: _192  and  _193
REMARK   89  A    between atoms: _196  and  _198
REMARK   90  A    between atoms: _198  and  _199
REMARK   91  A    between atoms: _201  and  _203
REMARK   92  A    between atoms: _203  and  _204
REMARK   93  A    between atoms: _203  and  _206
REMARK   94  A    between atoms: _206  and  _207
REMARK   95  A    between atoms: _207  and  _208
REMARK   96  A    between atoms: _210  and  _212
REMARK   97  A    between atoms: _212  and  _213
REMARK   98  A    between atoms: _212  and  _215
REMARK   99  A    between atoms: _215  and  _216
REMARK  100  A    between atoms: _219  and  _221
REMARK  101  A    between atoms: _221  and  _222
REMARK  102  A    between atoms: _221  and  _224
REMARK  103  A    between atoms: _224  and  _225
REMARK  104  A    between atoms: _228  and  _230
REMARK  105  A    between atoms: _230  and  _231
REMARK  106  A    between atoms: _230  and  _233
REMARK  107  A    between atoms: _233  and  _234
REMARK  108  A    between atoms: _237  and  _239
REMARK  109  A    between atoms: _239  and  _240
REMARK  110  A    between atoms: _239  and  _242
REMARK  111  A    between atoms: _242  and  _243
REMARK  112  A    between atoms: _248  and  _250
REMARK  113  A    between atoms: _250  and  _251
REMARK  114  A    between atoms: _250  and  _253
REMARK  115  A    between atoms: _253  and  _254
REMARK  116  A    between atoms: _259  and  _261
REMARK  117  A    between atoms: _261  and  _262
REMARK  118  A    between atoms: _261  and  _264
REMARK  119  A    between atoms: _264  and  _265
REMARK  120  A    between atoms: _268  and  _270
REMARK  121  A    between atoms: _270  and  _271
REMARK  122  A    between atoms: _273  and  _275
REMARK  123  A    between atoms: _275  and  _276
REMARK  124  A    between atoms: _275  and  _278
REMARK  125  A    between atoms: _278  and  _279
REMARK  126  A    between atoms: _282  and  _284
REMARK  127  A    between atoms: _284  and  _285
REMARK  128  A    between atoms: _284  and  _287
REMARK  129  A    between atoms: _287  and  _288
REMARK  130  A    between atoms: _291  and  _293
REMARK  131  A    between atoms: _293  and  _294
REMARK  132  A    between atoms: _297  and  _299
REMARK  133  A    between atoms: _299  and  _300
REMARK  134  A    between atoms: _299  and  _302
REMARK  135  A    between atoms: _302  and  _303
REMARK  136  A    between atoms: _303  and  _304
REMARK  137  A    between atoms: _304  and  _305
REMARK  138  A    between atoms: _305  and  _306
REMARK  139  A    between atoms: _310  and  _312
REMARK  140  A    between atoms: _312  and  _313
REMARK  141  A    between atoms: _312  and  _315
REMARK  142  A    between atoms: _315  and  _316
REMARK  143  A    between atoms: _318  and  _320
REMARK  144  A    between atoms: _320  and  _321
REMARK  145  A    between atoms: _323  and  _325
REMARK  146  A    between atoms: _325  and  _326
REMARK  147  A    between atoms: _325  and  _328
REMARK  148  A    between atoms: _328  and  _329
REMARK  149  A    between atoms: _332  and  _334
REMARK  150  A    between atoms: _334  and  _335
REMARK  151  A    between atoms: _334  and  _337
REMARK  152  A    between atoms: _337  and  _338
REMARK  153  A    between atoms: _344  and  _346
REMARK  154  A    between atoms: _346  and  _347
REMARK  155  A    between atoms: _349  and  _351
REMARK  156  A    between atoms: _351  and  _352
REMARK  157  A    between atoms: _351  and  _354
REMARK  158  A    between atoms: _357  and  _359
REMARK  159  A    between atoms: _359  and  _360
REMARK  160  A    between atoms: _362  and  _364
REMARK  161  A    between atoms: _364  and  _365
REMARK  162  A    between atoms: _364  and  _367
REMARK  163  A    between atoms: _367  and  _368
REMARK  164  A    between atoms: _374  and  _376
REMARK  165  A    between atoms: _376  and  _377
REMARK  166  A    between atoms: _376  and  _379
REMARK  167  A    between atoms: _379  and  _380
REMARK  168  A    between atoms: _385  and  _386
REMARK  169  A    between atoms: _388  and  _390
REMARK  170  A    between atoms: _390  and  _391
REMARK  171  A    between atoms: _390  and  _393
REMARK  172  A    between atoms: _393  and  _394
REMARK  173  A    between atoms: _396  and  _398
REMARK  174  A    between atoms: _398  and  _399
REMARK  175  A    between atoms: _398  and  _401
REMARK  176  A    between atoms: _404  and  _406
REMARK  177  A    between atoms: _406  and  _407
REMARK  178  A    between atoms: _406  and  _409
REMARK  179  A    between atoms: _409  and  _410
REMARK  180  A    between atoms: _413  and  _415
REMARK  181  A    between atoms: _415  and  _416
REMARK  182  A    between atoms: _415  and  _418
REMARK  183  A    between atoms: _421  and  _423
REMARK  184  A    between atoms: _423  and  _424
REMARK  185  A    between atoms: _423  and  _426
REMARK  186  A    between atoms: _426  and  _427
REMARK  187  A    between atoms: _430  and  _432
REMARK  188  A    between atoms: _432  and  _433
REMARK  189  A    between atoms: _432  and  _435
REMARK  190  A    between atoms: _435  and  _436
REMARK  191  A    between atoms: _439  and  _441
REMARK  192  A    between atoms: _441  and  _442
REMARK  193  A    between atoms: _441  and  _444
REMARK  194  A    between atoms: _444  and  _445
REMARK  195  A    between atoms: _445  and  _446
REMARK  196  A    between atoms: _446  and  _447
REMARK  197  A    between atoms: _447  and  _448
REMARK  198  A    between atoms: _452  and  _454
REMARK  199  A    between atoms: _454  and  _455
REMARK  200  A    between atoms: _454  and  _457
REMARK  201  A    between atoms: _457  and  _458
REMARK  202  A    between atoms: _463  and  _465
REMARK  203  A    between atoms: _465  and  _466
REMARK  204  A    between atoms: _465  and  _468
REMARK  205  A    between atoms: _468  and  _469
REMARK  206  A    between atoms: _479  and  _481
REMARK  207  A    between atoms: _481  and  _482
REMARK  208  A    between atoms: _484  and  _486
REMARK  209  A    between atoms: _486  and  _487
REMARK  210  A    between atoms: _486  and  _489
REMARK  211  A    between atoms: _489  and  _490
REMARK  212  A    between atoms: _493  and  _495
REMARK  213  A    between atoms: _495  and  _496
REMARK  214  A    between atoms: _495  and  _498
REMARK  215  A    between atoms: _498  and  _499
REMARK  216  A    between atoms: _499  and  _500
REMARK  217  A    between atoms: _500  and  _501
REMARK  218  A    between atoms: _501  and  _502
REMARK  219  A    between atoms: _506  and  _508
REMARK  220  A    between atoms: _508  and  _509
REMARK  221  A    between atoms: _508  and  _511
REMARK                            x       y       z     vdW  Elec       q    Type
REMARK                         _______ _______ _______ _____ _____    ______ ____
ROOT
ATOM      1  C   ILE A   4     -23.279  17.947 -11.709  0.00  0.00    +0.241 C 
ATOM      2  O   ILE A   4     -24.177  18.791 -11.640  0.00  0.00    -0.273 OA
ATOM      3  N   THR A   5     -23.493  16.705 -12.137  0.00  0.00    -0.295 N 
ATOM      4  H   THR A   5     -22.726  16.003 -12.115  0.00  0.00    +0.150 HD
ENDROOT
BRANCH   3   5
ATOM      5  CA  THR A   5     -24.804  16.340 -12.633  0.00  0.00    +0.176 C 
BRANCH   5   6
ATOM      6  C   THR A   5     -25.173  14.933 -12.242  0.00  0.00    +0.243 C 
ATOM      7  N   LYS A   6     -26.472  14.724 -12.051  0.00  0.00    -0.297 N 
ATOM      8  H   LYS A   6     -27.135  15.516 -12.172  0.00  0.00    +0.150 HD
ATOM      9  O   THR A   5     -24.303  14.035 -12.148  0.00  0.00    -0.273 OA
BRANCH   7  10
ATOM     10  CA  LYS A   6     -26.993  13.413 -11.676  0.00  0.00    +0.149 C 
BRANCH  10  11
ATOM     11  C   LYS A   6     -28.306  13.215 -12.393  0.00  0.00    +0.241 C 
ATOM     12  O   LYS A   6     -29.260  13.992 -12.197  0.00  0.00    -0.273 OA
ATOM     13  N   HIS A   7     -28.353  12.196 -13.257  0.00  0.00    -0.298 N 
ATOM     14  H   HIS A   7     -27.473  11.665 -13.419  0.00  0.00    +0.150 HD
BRANCH  13  15
ATOM     15  CA  HIS A   7     -29.536  11.769 -13.990  0.00  0.00    +0.143 C 
BRANCH  15  16
ATOM     16  C   HIS A   7     -29.998  10.450 -13.345  0.00  0.00    +0.227 C 
ATOM     17  O   HIS A   7     -29.153   9.668 -12.889  0.00  0.00    -0.286 OA
ENDBRANCH  15  16
BRANCH  15  18
ATOM     18  CB  HIS A   7     -29.181  11.539 -15.470  0.00  0.00    +0.075 C 
BRANCH  18  19
ATOM     19  CG  HIS A   7     -30.345  11.242 -16.371  0.00  0.00    +0.082 A 
ATOM     20  ND1 HIS A   7     -30.945   9.987 -16.395  0.00  0.00    -0.227 NA
ATOM     21  CE1 HIS A   7     -31.920  10.080 -17.282  0.00  0.00    +0.199 A 
ATOM     22  NE2 HIS A   7     -31.944  11.283 -17.869  0.00  0.00    -0.221 NA
ATOM     23  CD2 HIS A   7     -30.983  12.043 -17.259  0.00  0.00    +0.115 A 
ENDBRANCH  18  19
ENDBRANCH  15  18
ENDBRANCH  13  15
ENDBRANCH  10  11
BRANCH  10  24
ATOM     24  CB  LYS A   6     -27.186  13.332 -10.147  0.00  0.00    +0.029 C 
BRANCH  24  25
ATOM     25  CG  LYS A   6     -27.857  12.015  -9.679  0.00  0.00    +0.000 C 
BRANCH  25  26
ATOM     26  CD  LYS A   6     -26.946  10.794  -9.884  0.00  0.00    -0.024 C 
BRANCH  26  27
ATOM     27  CE  LYS A   6     -27.557   9.516  -9.321  0.00  0.00    -0.086 C 
BRANCH  27  28
ATOM     28  NZ  LYS A   6     -28.700   9.031 -10.135  0.00  0.00    +0.380 N 
ATOM     29  HZ1 LYS A   6     -29.081   8.161  -9.712  0.00  0.00    -0.089 HD
ATOM     30  HZ2 LYS A   6     -29.441   9.760 -10.158  0.00  0.00    -0.089 HD
ATOM     31  HZ3 LYS A   6     -28.376   8.834 -11.103  0.00  0.00    -0.089 HD
ENDBRANCH  27  28
ENDBRANCH  26  27
ENDBRANCH  25  26
ENDBRANCH  24  25
ENDBRANCH  10  24
ENDBRANCH   7  10
ENDBRANCH   5   6
BRANCH   5  32
ATOM     32  CB  THR A   5     -24.873  16.575 -14.171  0.00  0.00    +0.137 C 
ATOM     33  CG2 THR A   5     -23.988  15.607 -14.961  0.00  0.00    +0.034 C 
BRANCH  32  34
ATOM     34  OG1 THR A   5     -26.225  16.559 -14.642  0.00  0.00    -0.382 OA
ATOM     35  HG1 THR A   5     -26.739  17.275 -14.191  0.00  0.00    +0.210 HD
ENDBRANCH  32  34
ENDBRANCH   5  32
ENDBRANCH   3   5
BRANCH   1  36
ATOM     36  CA  ILE A   4     -21.878  18.354 -11.254  0.00  0.00    +0.149 C 
BRANCH  36  38
ATOM     37  C   VAL A   3     -20.779  19.675 -13.053  0.00  0.00    +0.241 C 
ATOM     38  N   ILE A   4     -21.577  19.614 -11.968  0.00  0.00    -0.297 N 
ATOM     39  H   ILE A   4     -22.002  20.496 -11.616  0.00  0.00    +0.150 HD
ATOM     40  O   VAL A   3     -20.164  18.678 -13.504  0.00  0.00    -0.273 OA
BRANCH  37  41
ATOM     41  CA  VAL A   3     -20.646  21.042 -13.722  0.00  0.00    +0.149 C 
BRANCH  41  44
ATOM     42  C   THR A   2     -18.910  22.536 -12.930  0.00  0.00    +0.243 C 
ATOM     43  O   THR A   2     -19.735  23.307 -12.404  0.00  0.00    -0.273 OA
ATOM     44  N   VAL A   3     -19.261  21.438 -13.596  0.00  0.00    -0.297 N 
ATOM     45  H   VAL A   3     -18.523  20.852 -14.035  0.00  0.00    +0.150 HD
BRANCH  42  46
ATOM     46  CA  THR A   2     -17.418  22.850 -12.822  0.00  0.00    +0.176 C 
BRANCH  46  48
ATOM     47  C   VAL A   1     -16.559  24.660 -14.267  0.00  0.00    +0.238 C 
ATOM     48  N   THR A   2     -17.239  24.252 -13.169  0.00  0.00    -0.295 N 
ATOM     49  H   THR A   2     -17.652  24.974 -12.545  0.00  0.00    +0.150 HD
ATOM     50  O   VAL A   1     -15.927  23.897 -15.006  0.00  0.00    -0.274 OA
BRANCH  47  51
ATOM     51  CA  VAL A   1     -16.594  26.160 -14.560  0.00  0.00    +0.145 C 
BRANCH  51  52
ATOM     52  CB  VAL A   1     -17.524  26.442 -15.760  0.00  0.00    +0.025 C 
ATOM     53  CG2 VAL A   1     -18.940  25.967 -15.465  0.00  0.00    +0.002 C 
ATOM     54  CG1 VAL A   1     -17.528  27.928 -16.133  0.00  0.00    +0.002 C 
ENDBRANCH  51  52
BRANCH  51  55
ATOM     55  N   VAL A   1     -15.211  26.578 -14.797  0.00  0.00    -0.238 NA
ATOM     56  H   VAL A   1     -14.648  26.067 -15.506  0.00  0.00    +0.142 HD
ENDBRANCH  51  55
ENDBRANCH  47  51
ENDBRANCH  46  48
BRANCH  46  57
ATOM     57  CB  THR A   2     -16.914  22.576 -11.405  0.00  0.00    +0.137 C 
ATOM     58  CG2 THR A   2     -16.945  21.098 -11.052  0.00  0.00    +0.034 C 
BRANCH  57  59
ATOM     59  OG1 THR A   2     -15.577  23.057 -11.276  0.00  0.00    -0.382 OA
ATOM     60  HG1 THR A   2     -14.996  22.593 -11.930  0.00  0.00    +0.210 HD
ENDBRANCH  57  59
ENDBRANCH  46  57
ENDBRANCH  42  46
ENDBRANCH  41  44
BRANCH  41  61
ATOM     61  CB  VAL A   3     -21.134  21.030 -15.192  0.00  0.00    +0.027 C 
ATOM     62  CG2 VAL A   3     -22.555  20.508 -15.293  0.00  0.00    +0.002 C 
ATOM     63  CG1 VAL A   3     -21.023  22.420 -15.812  0.00  0.00    +0.002 C 
ENDBRANCH  41  61
ENDBRANCH  37  41
ENDBRANCH  36  38
BRANCH  36  64
ATOM     64  CB  ILE A   4     -21.834  18.544  -9.722  0.00  0.00    +0.027 C 
ATOM     65  CG2 ILE A   4     -22.030  17.197  -8.978  0.00  0.00    +0.002 C 
BRANCH  64  66
ATOM     66  CG1 ILE A   4     -20.603  19.315  -9.221  0.00  0.00    +0.002 C 
ATOM     67  CD1 ILE A   4     -19.270  18.675  -9.475  0.00  0.00    +0.000 C 
ENDBRANCH  64  66
ENDBRANCH  36  64
ENDBRANCH   1  36
TORSDOF 29
REMARK  Name = ../refined-set-2016/3wha/3wha_pocket.pdb
REMARK  221 active torsions:
REMARK  status: ('A' for Active; 'I' for Inactive)
REMARK    1  A    between atoms: _1  and  _3
REMARK    2  A    between atoms: _3  and  _4
REMARK    3  A    between atoms: _3  and  _6
REMARK    4  A    between atoms: _6  and  _7
REMARK    5  A    between atoms: _10  and  _12
REMARK    6  A    between atoms: _12  and  _13
REMARK    7  A    between atoms: _12  and  _15
REMARK    8  A    between atoms: _15  and  _16
REMARK    9  A    between atoms: _19  and  _21
REMARK   10  A    between atoms: _21  and  _22
REMARK   11  A    between atoms: _21  and  _24
REMARK   12  A    between atoms: _24  and  _25
REMARK   13  A    between atoms: _25  and  _26
REMARK   14  A    between atoms: _29  and  _31
REMARK   15  A    between atoms: _31  and  _32
REMARK   16  A    between atoms: _31  and  _34
REMARK   17  A    between atoms: _34  and  _35
REMARK   18  A    between atoms: _38  and  _40
REMARK   19  A    between atoms: _40  and  _41
REMARK   20  A    between atoms: _40  and  _43
REMARK   21  A    between atoms: _43  and  _44
REMARK   22  A    between atoms: _47  and  _49
REMARK   23  A    between atoms: _49  and  _50
REMARK   24  A    between atoms: _49  and  _52
REMARK   25  A    between atoms: _52  and  _53
REMARK   26  A    between atoms: _55  and  _57
REMARK   27  A    between atoms: _57  and  _58
REMARK   28  A    between atoms: _57  and  _60
REMARK   29  A    between atoms: _60  and  _61
REMARK   30  A    between atoms: _66  and  _68
REMARK   31  A    between atoms: _68  and  _69
REMARK   32  A    between atoms: _68  and  _71
REMARK   33  A    between atoms: _71  and  _72
REMARK   34  A    between atoms: _74  and  _76
REMARK   35  A    between atoms: _76  and  _77
REMARK   36  A    between atoms: _76  and  _79
REMARK   37  A    between atoms: _79  and  _80
REMARK   38  A    between atoms: _82  and  _84
REMARK   39  A    between atoms: _84  and  _85
REMARK   40  A    between atoms: _84  and  _87
REMARK   41  A    between atoms: _87  and  _88
REMARK   42  A    between atoms: _91  and  _93
REMARK   43  A    between atoms: _93  and  _94
REMARK   44  A    between atoms: _97  and  _99
REMARK   45  A    between atoms: _99  and  _100
REMARK   46  A    between atoms: _99  and  _102
REMARK   47  A    between atoms: _102  and  _103
REMARK   48  A    between atoms: _106  and  _108
REMARK   49  A    between atoms: _108  and  _109
REMARK   50  A    between atoms: _108  and  _111
REMARK   51  A    between atoms: _111  and  _112
REMARK   52  A    between atoms: _115  and  _117
REMARK   53  A    between atoms: _117  and  _118
REMARK   54  A    between atoms: _117  and  _120
REMARK   55  A    between atoms: _120  and  _121
REMARK   56  A    between atoms: _121  and  _122
REMARK   57  A    between atoms: _122  and  _123
REMARK   58  A    between atoms: _123  and  _124
REMARK   59  A    between atoms: _128  and  _130
REMARK   60  A    between atoms: _130  and  _131
REMARK   61  A    between atoms: _130  and  _133
REMARK   62  A    between atoms: _133  and  _134
REMARK   63  A    between atoms: _137  and  _139
REMARK   64  A    between atoms: _139  and  _140
REMARK   65  A    between atoms: _139  and  _142
REMARK   66  A    between atoms: _142  and  _143
REMARK   67  A    between atoms: _143  and  _144
REMARK   68  A    between atoms: _147  and  _149
REMARK   69  A    between atoms: _149  and  _150
REMARK   70  A    between atoms: _149  and  _152
REMARK   71  A    between atoms: _152  and  _153
REMARK   72  A    between atoms: _156  and  _158
REMARK   73  A    between atoms: _158  and  _159
REMARK   74  A    between atoms: _158  and  _161
REMARK   75  A    between atoms: _164  and  _166
REMARK   76  A    between atoms: _166  and  _167
REMARK   77  A    between atoms: _166  and  _169
REMARK   78  A    between atoms: _169  and  _170
REMARK   79  A    between atoms: _173  and  _175
REMARK   80  A    between atoms: _175  and  _176
REMARK   81  A    between atoms: _175  and  _178
REMARK   82  A    between atoms: _178  and  _179
REMARK   83  A    between atoms: _182  and  _184
REMARK   84  A    between atoms: _184  and  _185
REMARK   85  A    between atoms: _187  and  _189
REMARK   86  A    between atoms: _189  and  _190
REMARK   87  A    between atoms: _189  and  _192
REMARK   88  A    between atoms: _192  and  _193
REMARK   89  A    between atoms: _196  and  _198
REMARK   90  A    between atoms: _198  and  _199
REMARK   91  A    between atoms: _201  and  _203
REMARK   92  A    between atoms: _203  and  _204
REMARK   93  A    between atoms: _203  and  _206
REMARK   94  A    between atoms: _206  and  _207
REMARK   95  A    between atoms: _207  and  _208
REMARK   96  A    between atoms: _210  and  _212
REMARK   97  A    between atoms: _212  and  _213
REMARK   98  A    between atoms: _212  and  _215
REMARK   99  A    between atoms: _215  and  _216
REMARK  100  A    between atoms: _219  and  _221
REMARK  101  A    between atoms: _221  and  _222
REMARK  102  A    between atoms: _221  and  _224
REMARK  103  A    between atoms: _224  and  _225
REMARK  104  A    between atoms: _228  and  _230
REMARK  105  A    between atoms: _230  and  _231
REMARK  106  A    between atoms: _230  and  _233
REMARK  107  A    between atoms: _233  and  _234
REMARK  108  A    between atoms: _237  and  _239
REMARK  109  A    between atoms: _239  and  _240
REMARK  110  A    between atoms: _239  and  _242
REMARK  111  A    between atoms: _242  and  _243
REMARK  112  A    between atoms: _248  and  _250
REMARK  113  A    between atoms: _250  and  _251
REMARK  114  A    between atoms: _250  and  _253
REMARK  115  A    between atoms: _253  and  _254
REMARK  116  A    between atoms: _259  and  _261
REMARK  117  A    between atoms: _261  and  _262
REMARK  118  A    between atoms: _261  and  _264
REMARK  119  A    between atoms: _264  and  _265
REMARK  120  A    between atoms: _268  and  _270
REMARK  121  A    between atoms: _270  and  _271
REMARK  122  A    between atoms: _273  and  _275
REMARK  123  A    between atoms: _275  and  _276
REMARK  124  A    between atoms: _275  and  _278
REMARK  125  A    between atoms: _278  and  _279
REMARK  126  A    between atoms: _282  and  _284
REMARK  127  A    between atoms: _284  and  _285
REMARK  128  A    between atoms: _284  and  _287
REMARK  129  A    between atoms: _287  and  _288
REMARK  130  A    between atoms: _291  and  _293
REMARK  131  A    between atoms: _293  and  _294
REMARK  132  A    between atoms: _297  and  _299
REMARK  133  A    between atoms: _299  and  _300
REMARK  134  A    between atoms: _299  and  _302
REMARK  135  A    between atoms: _302  and  _303
REMARK  136  A    between atoms: _303  and  _304
REMARK  137  A    between atoms: _304  and  _305
REMARK  138  A    between atoms: _305  and  _306
REMARK  139  A    between atoms: _310  and  _312
REMARK  140  A    between atoms: _312  and  _313
REMARK  141  A    between atoms: _312  and  _315
REMARK  142  A    between atoms: _315  and  _316
REMARK  143  A    between atoms: _318  and  _320
REMARK  144  A    between atoms: _320  and  _321
REMARK  145  A    between atoms: _323  and  _325
REMARK  146  A    between atoms: _325  and  _326
REMARK  147  A    between atoms: _325  and  _328
REMARK  148  A    between atoms: _328  and  _329
REMARK  149  A    between atoms: _332  and  _334
REMARK  150  A    between atoms: _334  and  _335
REMARK  151  A    between atoms: _334  and  _337
REMARK  152  A    between atoms: _337  and  _338
REMARK  153  A    between atoms: _344  and  _346
REMARK  154  A    between atoms: _346  and  _347
REMARK  155  A    between atoms: _349  and  _351
REMARK  156  A    between atoms: _351  and  _352
REMARK  157  A    between atoms: _351  and  _354
REMARK  158  A    between atoms: _357  and  _359
REMARK  159  A    between atoms: _359  and  _360
REMARK  160  A    between atoms: _362  and  _364
REMARK  161  A    between atoms: _364  and  _365
REMARK  162  A    between atoms: _364  and  _367
REMARK  163  A    between atoms: _367  and  _368
REMARK  164  A    between atoms: _374  and  _376
REMARK  165  A    between atoms: _376  and  _377
REMARK  166  A    between atoms: _376  and  _379
REMARK  167  A    between atoms: _379  and  _380
REMARK  168  A    between atoms: _385  and  _386
REMARK  169  A    between atoms: _388  and  _390
REMARK  170  A    between atoms: _390  and  _391
REMARK  171  A    between atoms: _390  and  _393
REMARK  172  A    between atoms: _393  and  _394
REMARK  173  A    between atoms: _396  and  _398
REMARK  174  A    between atoms: _398  and  _399
REMARK  175  A    between atoms: _398  and  _401
REMARK  176  A    between atoms: _404  and  _406
REMARK  177  A    between atoms: _406  and  _407
REMARK  178  A    between atoms: _406  and  _409
REMARK  179  A    between atoms: _409  and  _410
REMARK  180  A    between atoms: _413  and  _415
REMARK  181  A    between atoms: _415  and  _416
REMARK  182  A    between atoms: _415  and  _418
REMARK  183  A    between atoms: _421  and  _423
REMARK  184  A    between atoms: _423  and  _424
REMARK  185  A    between atoms: _423  and  _426
REMARK  186  A    between atoms: _426  and  _427
REMARK  187  A    between atoms: _430  and  _432
REMARK  188  A    between atoms: _432  and  _433
REMARK  189  A    between atoms: _432  and  _435
REMARK  190  A    between atoms: _435  and  _436
REMARK  191  A    between atoms: _439  and  _441
REMARK  192  A    between atoms: _441  and  _442
REMARK  193  A    between atoms: _441  and  _444
REMARK  194  A    between atoms: _444  and  _445
REMARK  195  A    between atoms: _445  and  _446
REMARK  196  A    between atoms: _446  and  _447
REMARK  197  A    between atoms: _447  and  _448
REMARK  198  A    between atoms: _452  and  _454
REMARK  199  A    between atoms: _454  and  _455
REMARK  200  A    between atoms: _454  and  _457
REMARK  201  A    between atoms: _457  and  _458
REMARK  202  A    between atoms: _463  and  _465
REMARK  203  A    between atoms: _465  and  _466
REMARK  204  A    between atoms: _465  and  _468
REMARK  205  A    between atoms: _468  and  _469
REMARK  206  A    between atoms: _479  and  _481
REMARK  207  A    between atoms: _481  and  _482
REMARK  208  A    between atoms: _484  and  _486
REMARK  209  A    between atoms: _486  and  _487
REMARK  210  A    between atoms: _486  and  _489
REMARK  211  A    between atoms: _489  and  _490
REMARK  212  A    between atoms: _493  and  _495
REMARK  213  A    between atoms: _495  and  _496
REMARK  214  A    between atoms: _495  and  _498
REMARK  215  A    between atoms: _498  and  _499
REMARK  216  A    between atoms: _499  and  _500
REMARK  217  A    between atoms: _500  and  _501
REMARK  218  A    between atoms: _501  and  _502
REMARK  219  A    between atoms: _506  and  _508
REMARK  220  A    between atoms: _508  and  _509
REMARK  221  A    between atoms: _508  and  _511
REMARK                            x       y       z     vdW  Elec       q    Type
REMARK                         _______ _______ _______ _____ _____    ______ ____
ROOT
ATOM      1  CG  TRP A   1     -17.901  19.003 -18.022  0.00  0.00    -0.002 A 
ATOM      2  CD2 TRP A   1     -17.705  20.414 -18.245  0.00  0.00    +0.013 A 
ATOM      3  CE3 TRP A   1     -17.744  21.548 -17.424  0.00  0.00    +0.001 A 
ATOM      4  CZ3 TRP A   1     -17.552  22.805 -18.005  0.00  0.00    +0.000 A 
ATOM      5  CH2 TRP A   1     -17.246  22.935 -19.373  0.00  0.00    +0.001 A 
ATOM      6  CZ2 TRP A   1     -17.211  21.849 -20.198  0.00  0.00    +0.017 A 
ATOM      7  CE2 TRP A   1     -17.378  20.583 -19.616  0.00  0.00    +0.056 A 
ATOM      8  NE1 TRP A   1     -17.472  19.352 -20.210  0.00  0.00    -0.352 N 
ATOM      9  HE1 TRP A   1     -17.348  19.161 -21.225  0.00  0.00    +0.166 HD
ATOM     10  CD1 TRP A   1     -17.758  18.405 -19.245  0.00  0.00    +0.068 A 
ENDROOT
BRANCH   1  11
ATOM     11  CB  TRP A   1     -18.337  18.325 -16.734  0.00  0.00    +0.053 C 
BRANCH  11  12
ATOM     12  CA  TRP A   1     -17.243  17.982 -15.732  0.00  0.00    +0.137 C 
BRANCH  12  13
ATOM     13  N   TRP A   1     -17.901  17.449 -14.545  0.00  0.00    -0.239 NA
ATOM     14  H   TRP A   1     -18.787  17.903 -14.244  0.00  0.00    +0.142 HD
ENDBRANCH  12  13
BRANCH  12  15
ATOM     15  C   TRP A   1     -16.560  19.258 -15.311  0.00  0.00    +0.224 C 
ATOM     16  O   TRP A   1     -17.086  19.999 -14.474  0.00  0.00    -0.287 OA
ENDBRANCH  12  15
ENDBRANCH  11  12
ENDBRANCH   1  11
TORSDOF 4
REMARK  Name = ../refined-set-2016/3wha/3wha_pocket.pdb
REMARK  221 active torsions:
REMARK  status: ('A' for Active; 'I' for Inactive)
REMARK    1  A    between atoms: _1  and  _3
REMARK    2  A    between atoms: _3  and  _4
REMARK    3  A    between atoms: _3  and  _6
REMARK    4  A    between atoms: _6  and  _7
REMARK    5  A    between atoms: _10  and  _12
REMARK    6  A    between atoms: _12  and  _13
REMARK    7  A    between atoms: _12  and  _15
REMARK    8  A    between atoms: _15  and  _16
REMARK    9  A    between atoms: _19  and  _21
REMARK   10  A    between atoms: _21  and  _22
REMARK   11  A    between atoms: _21  and  _24
REMARK   12  A    between atoms: _24  and  _25
REMARK   13  A    between atoms: _25  and  _26
REMARK   14  A    between atoms: _29  and  _31
REMARK   15  A    between atoms: _31  and  _32
REMARK   16  A    between atoms: _31  and  _34
REMARK   17  A    between atoms: _34  and  _35
REMARK   18  A    between atoms: _38  and  _40
REMARK   19  A    between atoms: _40  and  _41
REMARK   20  A    between atoms: _40  and  _43
REMARK   21  A    between atoms: _43  and  _44
REMARK   22  A    between atoms: _47  and  _49
REMARK   23  A    between atoms: _49  and  _50
REMARK   24  A    between atoms: _49  and  _52
REMARK   25  A    between atoms: _52  and  _53
REMARK   26  A    between atoms: _55  and  _57
REMARK   27  A    between atoms: _57  and  _58
REMARK   28  A    between atoms: _57  and  _60
REMARK   29  A    between atoms: _60  and  _61
REMARK   30  A    between atoms: _66  and  _68
REMARK   31  A    between atoms: _68  and  _69
REMARK   32  A    between atoms: _68  and  _71
REMARK   33  A    between atoms: _71  and  _72
REMARK   34  A    between atoms: _74  and  _76
REMARK   35  A    between atoms: _76  and  _77
REMARK   36  A    between atoms: _76  and  _79
REMARK   37  A    between atoms: _79  and  _80
REMARK   38  A    between atoms: _82  and  _84
REMARK   39  A    between atoms: _84  and  _85
REMARK   40  A    between atoms: _84  and  _87
REMARK   41  A    between atoms: _87  and  _88
REMARK   42  A    between atoms: _91  and  _93
REMARK   43  A    between atoms: _93  and  _94
REMARK   44  A    between atoms: _97  and  _99
REMARK   45  A    between atoms: _99  and  _100
REMARK   46  A    between atoms: _99  and  _102
REMARK   47  A    between atoms: _102  and  _103
REMARK   48  A    between atoms: _106  and  _108
REMARK   49  A    between atoms: _108  and  _109
REMARK   50  A    between atoms: _108  and  _111
REMARK   51  A    between atoms: _111  and  _112
REMARK   52  A    between atoms: _115  and  _117
REMARK   53  A    between atoms: _117  and  _118
REMARK   54  A    between atoms: _117  and  _120
REMARK   55  A    between atoms: _120  and  _121
REMARK   56  A    between atoms: _121  and  _122
REMARK   57  A    between atoms: _122  and  _123
REMARK   58  A    between atoms: _123  and  _124
REMARK   59  A    between atoms: _128  and  _130
REMARK   60  A    between atoms: _130  and  _131
REMARK   61  A    between atoms: _130  and  _133
REMARK   62  A    between atoms: _133  and  _134
REMARK   63  A    between atoms: _137  and  _139
REMARK   64  A    between atoms: _139  and  _140
REMARK   65  A    between atoms: _139  and  _142
REMARK   66  A    between atoms: _142  and  _143
REMARK   67  A    between atoms: _143  and  _144
REMARK   68  A    between atoms: _147  and  _149
REMARK   69  A    between atoms: _149  and  _150
REMARK   70  A    between atoms: _149  and  _152
REMARK   71  A    between atoms: _152  and  _153
REMARK   72  A    between atoms: _156  and  _158
REMARK   73  A    between atoms: _158  and  _159
REMARK   74  A    between atoms: _158  and  _161
REMARK   75  A    between atoms: _164  and  _166
REMARK   76  A    between atoms: _166  and  _167
REMARK   77  A    between atoms: _166  and  _169
REMARK   78  A    between atoms: _169  and  _170
REMARK   79  A    between atoms: _173  and  _175
REMARK   80  A    between atoms: _175  and  _176
REMARK   81  A    between atoms: _175  and  _178
REMARK   82  A    between atoms: _178  and  _179
REMARK   83  A    between atoms: _182  and  _184
REMARK   84  A    between atoms: _184  and  _185
REMARK   85  A    between atoms: _187  and  _189
REMARK   86  A    between atoms: _189  and  _190
REMARK   87  A    between atoms: _189  and  _192
REMARK   88  A    between atoms: _192  and  _193
REMARK   89  A    between atoms: _196  and  _198
REMARK   90  A    between atoms: _198  and  _199
REMARK   91  A    between atoms: _201  and  _203
REMARK   92  A    between atoms: _203  and  _204
REMARK   93  A    between atoms: _203  and  _206
REMARK   94  A    between atoms: _206  and  _207
REMARK   95  A    between atoms: _207  and  _208
REMARK   96  A    between atoms: _210  and  _212
REMARK   97  A    between atoms: _212  and  _213
REMARK   98  A    between atoms: _212  and  _215
REMARK   99  A    between atoms: _215  and  _216
REMARK  100  A    between atoms: _219  and  _221
REMARK  101  A    between atoms: _221  and  _222
REMARK  102  A    between atoms: _221  and  _224
REMARK  103  A    between atoms: _224  and  _225
REMARK  104  A    between atoms: _228  and  _230
REMARK  105  A    between atoms: _230  and  _231
REMARK  106  A    between atoms: _230  and  _233
REMARK  107  A    between atoms: _233  and  _234
REMARK  108  A    between atoms: _237  and  _239
REMARK  109  A    between atoms: _239  and  _240
REMARK  110  A    between atoms: _239  and  _242
REMARK  111  A    between atoms: _242  and  _243
REMARK  112  A    between atoms: _248  and  _250
REMARK  113  A    between atoms: _250  and  _251
REMARK  114  A    between atoms: _250  and  _253
REMARK  115  A    between atoms: _253  and  _254
REMARK  116  A    between atoms: _259  and  _261
REMARK  117  A    between atoms: _261  and  _262
REMARK  118  A    between atoms: _261  and  _264
REMARK  119  A    between atoms: _264  and  _265
REMARK  120  A    between atoms: _268  and  _270
REMARK  121  A    between atoms: _270  and  _271
REMARK  122  A    between atoms: _273  and  _275
REMARK  123  A    between atoms: _275  and  _276
REMARK  124  A    between atoms: _275  and  _278
REMARK  125  A    between atoms: _278  and  _279
REMARK  126  A    between atoms: _282  and  _284
REMARK  127  A    between atoms: _284  and  _285
REMARK  128  A    between atoms: _284  and  _287
REMARK  129  A    between atoms: _287  and  _288
REMARK  130  A    between atoms: _291  and  _293
REMARK  131  A    between atoms: _293  and  _294
REMARK  132  A    between atoms: _297  and  _299
REMARK  133  A    between atoms: _299  and  _300
REMARK  134  A    between atoms: _299  and  _302
REMARK  135  A    between atoms: _302  and  _303
REMARK  136  A    between atoms: _303  and  _304
REMARK  137  A    between atoms: _304  and  _305
REMARK  138  A    between atoms: _305  and  _306
REMARK  139  A    between atoms: _310  and  _312
REMARK  140  A    between atoms: _312  and  _313
REMARK  141  A    between atoms: _312  and  _315
REMARK  142  A    between atoms: _315  and  _316
REMARK  143  A    between atoms: _318  and  _320
REMARK  144  A    between atoms: _320  and  _321
REMARK  145  A    between atoms: _323  and  _325
REMARK  146  A    between atoms: _325  and  _326
REMARK  147  A    between atoms: _325  and  _328
REMARK  148  A    between atoms: _328  and  _329
REMARK  149  A    between atoms: _332  and  _334
REMARK  150  A    between atoms: _334  and  _335
REMARK  151  A    between atoms: _334  and  _337
REMARK  152  A    between atoms: _337  and  _338
REMARK  153  A    between atoms: _344  and  _346
REMARK  154  A    between atoms: _346  and  _347
REMARK  155  A    between atoms: _349  and  _351
REMARK  156  A    between atoms: _351  and  _352
REMARK  157  A    between atoms: _351  and  _354
REMARK  158  A    between atoms: _357  and  _359
REMARK  159  A    between atoms: _359  and  _360
REMARK  160  A    between atoms: _362  and  _364
REMARK  161  A    between atoms: _364  and  _365
REMARK  162  A    between atoms: _364  and  _367
REMARK  163  A    between atoms: _367  and  _368
REMARK  164  A    between atoms: _374  and  _376
REMARK  165  A    between atoms: _376  and  _377
REMARK  166  A    between atoms: _376  and  _379
REMARK  167  A    between atoms: _379  and  _380
REMARK  168  A    between atoms: _385  and  _386
REMARK  169  A    between atoms: _388  and  _390
REMARK  170  A    between atoms: _390  and  _391
REMARK  171  A    between atoms: _390  and  _393
REMARK  172  A    between atoms: _393  and  _394
REMARK  173  A    between atoms: _396  and  _398
REMARK  174  A    between atoms: _398  and  _399
REMARK  175  A    between atoms: _398  and  _401
REMARK  176  A    between atoms: _404  and  _406
REMARK  177  A    between atoms: _406  and  _407
REMARK  178  A    between atoms: _406  and  _409
REMARK  179  A    between atoms: _409  and  _410
REMARK  180  A    between atoms: _413  and  _415
REMARK  181  A    between atoms: _415  and  _416
REMARK  182  A    between atoms: _415  and  _418
REMARK  183  A    between atoms: _421  and  _423
REMARK  184  A    between atoms: _423  and  _424
REMARK  185  A    between atoms: _423  and  _426
REMARK  186  A    between atoms: _426  and  _427
REMARK  187  A    between atoms: _430  and  _432
REMARK  188  A    between atoms: _432  and  _433
REMARK  189  A    between atoms: _432  and  _435
REMARK  190  A    between atoms: _435  and  _436
REMARK  191  A    between atoms: _439  and  _441
REMARK  192  A    between atoms: _441  and  _442
REMARK  193  A    between atoms: _441  and  _444
REMARK  194  A    between atoms: _444  and  _445
REMARK  195  A    between atoms: _445  and  _446
REMARK  196  A    between atoms: _446  and  _447
REMARK  197  A    between atoms: _447  and  _448
REMARK  198  A    between atoms: _452  and  _454
REMARK  199  A    between atoms: _454  and  _455
REMARK  200  A    between atoms: _454  and  _457
REMARK  201  A    between atoms: _457  and  _458
REMARK  202  A    between atoms: _463  and  _465
REMARK  203  A    between atoms: _465  and  _466
REMARK  204  A    between atoms: _465  and  _468
REMARK  205  A    between atoms: _468  and  _469
REMARK  206  A    between atoms: _479  and  _481
REMARK  207  A    between atoms: _481  and  _482
REMARK  208  A    between atoms: _484  and  _486
REMARK  209  A    between atoms: _486  and  _487
REMARK  210  A    between atoms: _486  and  _489
REMARK  211  A    between atoms: _489  and  _490
REMARK  212  A    between atoms: _493  and  _495
REMARK  213  A    between atoms: _495  and  _496
REMARK  214  A    between atoms: _495  and  _498
REMARK  215  A    between atoms: _498  and  _499
REMARK  216  A    between atoms: _499  and  _500
REMARK  217  A    between atoms: _500  and  _501
REMARK  218  A    between atoms: _501  and  _502
REMARK  219  A    between atoms: _506  and  _508
REMARK  220  A    between atoms: _508  and  _509
REMARK  221  A    between atoms: _508  and  _511
REMARK                            x       y       z     vdW  Elec       q    Type
REMARK                         _______ _______ _______ _____ _____    ______ ____
ROOT
ATOM      1  CA  LYS A   3     -24.984  22.175 -10.317  0.00  0.00    +0.149 C 
ENDROOT
BRANCH   1   4
ATOM      2  C   THR A   2     -26.912  21.047 -11.396  0.00  0.00    +0.243 C 
ATOM      3  O   THR A   2     -27.744  21.882 -11.025  0.00  0.00    -0.273 OA
ATOM      4  N   LYS A   3     -25.621  21.120 -11.090  0.00  0.00    -0.297 N 
ATOM      5  H   LYS A   3     -25.010  20.352 -11.435  0.00  0.00    +0.150 HD
BRANCH   2   6
ATOM      6  CA  THR A   2     -27.298  19.858 -12.248  0.00  0.00    +0.176 C 
BRANCH   6   8
ATOM      7  C   GLY A   1     -28.785  17.998 -11.693  0.00  0.00    +0.240 C 
ATOM      8  N   THR A   2     -28.572  19.307 -11.782  0.00  0.00    -0.295 N 
ATOM      9  H   THR A   2     -29.335  19.961 -11.512  0.00  0.00    +0.150 HD
ATOM     10  O   GLY A   1     -27.920  17.145 -11.908  0.00  0.00    -0.274 OA
BRANCH   7  11
ATOM     11  CA  GLY A   1     -30.178  17.603 -11.290  0.00  0.00    +0.169 C 
BRANCH  11  12
ATOM     12  N   GLY A   1     -30.270  16.249 -10.771  0.00  0.00    -0.236 NA
ATOM     13  H   GLY A   1     -29.838  15.468 -11.304  0.00  0.00    +0.142 HD
ENDBRANCH  11  12
ENDBRANCH   7  11
ENDBRANCH   6   8
BRANCH   6  14
ATOM     14  CB  THR A   2     -27.379  20.227 -13.750  0.00  0.00    +0.137 C 
ATOM     15  CG2 THR A   2     -26.075  20.864 -14.309  0.00  0.00    +0.034 C 
BRANCH  14  16
ATOM     16  OG1 THR A   2     -27.690  19.045 -14.501  0.00  0.00    -0.382 OA
ATOM     17  HG1 THR A   2     -26.981  18.369 -14.359  0.00  0.00    +0.210 HD
ENDBRANCH  14  16
ENDBRANCH   6  14
ENDBRANCH   2   6
ENDBRANCH   1   4
BRANCH   1  18
ATOM     18  C   LYS A   3     -23.879  22.790 -11.177  0.00  0.00    +0.241 C 
ATOM     19  N   VAL A   4     -24.003  24.078 -11.512  0.00  0.00    -0.298 N 
ATOM     20  H   VAL A   4     -24.855  24.594 -11.213  0.00  0.00    +0.150 HD
ATOM     21  O   LYS A   3     -22.951  22.074 -11.580  0.00  0.00    -0.273 OA
BRANCH  19  22
ATOM     22  CA  VAL A   4     -22.980  24.791 -12.287  0.00  0.00    +0.137 C 
BRANCH  22  23
ATOM     23  CB  VAL A   4     -23.608  25.585 -13.455  0.00  0.00    +0.026 C 
ATOM     24  CG2 VAL A   4     -22.509  26.333 -14.228  0.00  0.00    +0.002 C 
ATOM     25  CG1 VAL A   4     -24.360  24.661 -14.393  0.00  0.00    +0.002 C 
ENDBRANCH  22  23
BRANCH  22  26
ATOM     26  C   VAL A   4     -22.234  25.692 -11.327  0.00  0.00    +0.227 C 
ATOM     27  O   VAL A   4     -22.824  26.629 -10.758  0.00  0.00    -0.286 OA
ENDBRANCH  22  26
ENDBRANCH  19  22
ENDBRANCH   1  18
BRANCH   1  28
ATOM     28  CB  LYS A   3     -24.419  21.535  -9.041  0.00  0.00    +0.029 C 
BRANCH  28  29
ATOM     29  CG  LYS A   3     -23.665  22.445  -8.113  0.00  0.00    +0.000 C 
BRANCH  29  30
ATOM     30  CD  LYS A   3     -23.637  21.932  -6.654  0.00  0.00    -0.024 C 
BRANCH  30  31
ATOM     31  CE  LYS A   3     -23.295  20.475  -6.442  0.00  0.00    -0.086 C 
BRANCH  31  32
ATOM     32  NZ  LYS A   3     -23.371  20.126  -4.986  0.00  0.00    +0.380 N 
ATOM     33  HZ1 LYS A   3     -22.697  20.713  -4.454  0.00  0.00    -0.089 HD
ATOM     34  HZ2 LYS A   3     -24.335  20.302  -4.638  0.00  0.00    -0.089 HD
ATOM     35  HZ3 LYS A   3     -23.133  19.122  -4.859  0.00  0.00    -0.089 HD
ENDBRANCH  31  32
ENDBRANCH  30  31
ENDBRANCH  29  30
ENDBRANCH  28  29
ENDBRANCH   1  28
TORSDOF 16
REMARK  Name = ../refined-set-2016/3wha/3wha_pocket.pdb
REMARK  221 active torsions:
REMARK  status: ('A' for Active; 'I' for Inactive)
REMARK    1  A    between atoms: _1  and  _3
REMARK    2  A    between atoms: _3  and  _4
REMARK    3  A    between atoms: _3  and  _6
REMARK    4  A    between atoms: _6  and  _7
REMARK    5  A    between atoms: _10  and  _12
REMARK    6  A    between atoms: _12  and  _13
REMARK    7  A    between atoms: _12  and  _15
REMARK    8  A    between atoms: _15  and  _16
REMARK    9  A    between atoms: _19  and  _21
REMARK   10  A    between atoms: _21  and  _22
REMARK   11  A    between atoms: _21  and  _24
REMARK   12  A    between atoms: _24  and  _25
REMARK   13  A    between atoms: _25  and  _26
REMARK   14  A    between atoms: _29  and  _31
REMARK   15  A    between atoms: _31  and  _32
REMARK   16  A    between atoms: _31  and  _34
REMARK   17  A    between atoms: _34  and  _35
REMARK   18  A    between atoms: _38  and  _40
REMARK   19  A    between atoms: _40  and  _41
REMARK   20  A    between atoms: _40  and  _43
REMARK   21  A    between atoms: _43  and  _44
REMARK   22  A    between atoms: _47  and  _49
REMARK   23  A    between atoms: _49  and  _50
REMARK   24  A    between atoms: _49  and  _52
REMARK   25  A    between atoms: _52  and  _53
REMARK   26  A    between atoms: _55  and  _57
REMARK   27  A    between atoms: _57  and  _58
REMARK   28  A    between atoms: _57  and  _60
REMARK   29  A    between atoms: _60  and  _61
REMARK   30  A    between atoms: _66  and  _68
REMARK   31  A    between atoms: _68  and  _69
REMARK   32  A    between atoms: _68  and  _71
REMARK   33  A    between atoms: _71  and  _72
REMARK   34  A    between atoms: _74  and  _76
REMARK   35  A    between atoms: _76  and  _77
REMARK   36  A    between atoms: _76  and  _79
REMARK   37  A    between atoms: _79  and  _80
REMARK   38  A    between atoms: _82  and  _84
REMARK   39  A    between atoms: _84  and  _85
REMARK   40  A    between atoms: _84  and  _87
REMARK   41  A    between atoms: _87  and  _88
REMARK   42  A    between atoms: _91  and  _93
REMARK   43  A    between atoms: _93  and  _94
REMARK   44  A    between atoms: _97  and  _99
REMARK   45  A    between atoms: _99  and  _100
REMARK   46  A    between atoms: _99  and  _102
REMARK   47  A    between atoms: _102  and  _103
REMARK   48  A    between atoms: _106  and  _108
REMARK   49  A    between atoms: _108  and  _109
REMARK   50  A    between atoms: _108  and  _111
REMARK   51  A    between atoms: _111  and  _112
REMARK   52  A    between atoms: _115  and  _117
REMARK   53  A    between atoms: _117  and  _118
REMARK   54  A    between atoms: _117  and  _120
REMARK   55  A    between atoms: _120  and  _121
REMARK   56  A    between atoms: _121  and  _122
REMARK   57  A    between atoms: _122  and  _123
REMARK   58  A    between atoms: _123  and  _124
REMARK   59  A    between atoms: _128  and  _130
REMARK   60  A    between atoms: _130  and  _131
REMARK   61  A    between atoms: _130  and  _133
REMARK   62  A    between atoms: _133  and  _134
REMARK   63  A    between atoms: _137  and  _139
REMARK   64  A    between atoms: _139  and  _140
REMARK   65  A    between atoms: _139  and  _142
REMARK   66  A    between atoms: _142  and  _143
REMARK   67  A    between atoms: _143  and  _144
REMARK   68  A    between atoms: _147  and  _149
REMARK   69  A    between atoms: _149  and  _150
REMARK   70  A    between atoms: _149  and  _152
REMARK   71  A    between atoms: _152  and  _153
REMARK   72  A    between atoms: _156  and  _158
REMARK   73  A    between atoms: _158  and  _159
REMARK   74  A    between atoms: _158  and  _161
REMARK   75  A    between atoms: _164  and  _166
REMARK   76  A    between atoms: _166  and  _167
REMARK   77  A    between atoms: _166  and  _169
REMARK   78  A    between atoms: _169  and  _170
REMARK   79  A    between atoms: _173  and  _175
REMARK   80  A    between atoms: _175  and  _176
REMARK   81  A    between atoms: _175  and  _178
REMARK   82  A    between atoms: _178  and  _179
REMARK   83  A    between atoms: _182  and  _184
REMARK   84  A    between atoms: _184  and  _185
REMARK   85  A    between atoms: _187  and  _189
REMARK   86  A    between atoms: _189  and  _190
REMARK   87  A    between atoms: _189  and  _192
REMARK   88  A    between atoms: _192  and  _193
REMARK   89  A    between atoms: _196  and  _198
REMARK   90  A    between atoms: _198  and  _199
REMARK   91  A    between atoms: _201  and  _203
REMARK   92  A    between atoms: _203  and  _204
REMARK   93  A    between atoms: _203  and  _206
REMARK   94  A    between atoms: _206  and  _207
REMARK   95  A    between atoms: _207  and  _208
REMARK   96  A    between atoms: _210  and  _212
REMARK   97  A    between atoms: _212  and  _213
REMARK   98  A    between atoms: _212  and  _215
REMARK   99  A    between atoms: _215  and  _216
REMARK  100  A    between atoms: _219  and  _221
REMARK  101  A    between atoms: _221  and  _222
REMARK  102  A    between atoms: _221  and  _224
REMARK  103  A    between atoms: _224  and  _225
REMARK  104  A    between atoms: _228  and  _230
REMARK  105  A    between atoms: _230  and  _231
REMARK  106  A    between atoms: _230  and  _233
REMARK  107  A    between atoms: _233  and  _234
REMARK  108  A    between atoms: _237  and  _239
REMARK  109  A    between atoms: _239  and  _240
REMARK  110  A    between atoms: _239  and  _242
REMARK  111  A    between atoms: _242  and  _243
REMARK  112  A    between atoms: _248  and  _250
REMARK  113  A    between atoms: _250  and  _251
REMARK  114  A    between atoms: _250  and  _253
REMARK  115  A    between atoms: _253  and  _254
REMARK  116  A    between atoms: _259  and  _261
REMARK  117  A    between atoms: _261  and  _262
REMARK  118  A    between atoms: _261  and  _264
REMARK  119  A    between atoms: _264  and  _265
REMARK  120  A    between atoms: _268  and  _270
REMARK  121  A    between atoms: _270  and  _271
REMARK  122  A    between atoms: _273  and  _275
REMARK  123  A    between atoms: _275  and  _276
REMARK  124  A    between atoms: _275  and  _278
REMARK  125  A    between atoms: _278  and  _279
REMARK  126  A    between atoms: _282  and  _284
REMARK  127  A    between atoms: _284  and  _285
REMARK  128  A    between atoms: _284  and  _287
REMARK  129  A    between atoms: _287  and  _288
REMARK  130  A    between atoms: _291  and  _293
REMARK  131  A    between atoms: _293  and  _294
REMARK  132  A    between atoms: _297  and  _299
REMARK  133  A    between atoms: _299  and  _300
REMARK  134  A    between atoms: _299  and  _302
REMARK  135  A    between atoms: _302  and  _303
REMARK  136  A    between atoms: _303  and  _304
REMARK  137  A    between atoms: _304  and  _305
REMARK  138  A    between atoms: _305  and  _306
REMARK  139  A    between atoms: _310  and  _312
REMARK  140  A    between atoms: _312  and  _313
REMARK  141  A    between atoms: _312  and  _315
REMARK  142  A    between atoms: _315  and  _316
REMARK  143  A    between atoms: _318  and  _320
REMARK  144  A    between atoms: _320  and  _321
REMARK  145  A    between atoms: _323  and  _325
REMARK  146  A    between atoms: _325  and  _326
REMARK  147  A    between atoms: _325  and  _328
REMARK  148  A    between atoms: _328  and  _329
REMARK  149  A    between atoms: _332  and  _334
REMARK  150  A    between atoms: _334  and  _335
REMARK  151  A    between atoms: _334  and  _337
REMARK  152  A    between atoms: _337  and  _338
REMARK  153  A    between atoms: _344  and  _346
REMARK  154  A    between atoms: _346  and  _347
REMARK  155  A    between atoms: _349  and  _351
REMARK  156  A    between atoms: _351  and  _352
REMARK  157  A    between atoms: _351  and  _354
REMARK  158  A    between atoms: _357  and  _359
REMARK  159  A    between atoms: _359  and  _360
REMARK  160  A    between atoms: _362  and  _364
REMARK  161  A    between atoms: _364  and  _365
REMARK  162  A    between atoms: _364  and  _367
REMARK  163  A    between atoms: _367  and  _368
REMARK  164  A    between atoms: _374  and  _376
REMARK  165  A    between atoms: _376  and  _377
REMARK  166  A    between atoms: _376  and  _379
REMARK  167  A    between atoms: _379  and  _380
REMARK  168  A    between atoms: _385  and  _386
REMARK  169  A    between atoms: _388  and  _390
REMARK  170  A    between atoms: _390  and  _391
REMARK  171  A    between atoms: _390  and  _393
REMARK  172  A    between atoms: _393  and  _394
REMARK  173  A    between atoms: _396  and  _398
REMARK  174  A    between atoms: _398  and  _399
REMARK  175  A    between atoms: _398  and  _401
REMARK  176  A    between atoms: _404  and  _406
REMARK  177  A    between atoms: _406  and  _407
REMARK  178  A    between atoms: _406  and  _409
REMARK  179  A    between atoms: _409  and  _410
REMARK  180  A    between atoms: _413  and  _415
REMARK  181  A    between atoms: _415  and  _416
REMARK  182  A    between atoms: _415  and  _418
REMARK  183  A    between atoms: _421  and  _423
REMARK  184  A    between atoms: _423  and  _424
REMARK  185  A    between atoms: _423  and  _426
REMARK  186  A    between atoms: _426  and  _427
REMARK  187  A    between atoms: _430  and  _432
REMARK  188  A    between atoms: _432  and  _433
REMARK  189  A    between atoms: _432  and  _435
REMARK  190  A    between atoms: _435  and  _436
REMARK  191  A    between atoms: _439  and  _441
REMARK  192  A    between atoms: _441  and  _442
REMARK  193  A    between atoms: _441  and  _444
REMARK  194  A    between atoms: _444  and  _445
REMARK  195  A    between atoms: _445  and  _446
REMARK  196  A    between atoms: _446  and  _447
REMARK  197  A    between atoms: _447  and  _448
REMARK  198  A    between atoms: _452  and  _454
REMARK  199  A    between atoms: _454  and  _455
REMARK  200  A    between atoms: _454  and  _457
REMARK  201  A    between atoms: _457  and  _458
REMARK  202  A    between atoms: _463  and  _465
REMARK  203  A    between atoms: _465  and  _466
REMARK  204  A    between atoms: _465  and  _468
REMARK  205  A    between atoms: _468  and  _469
REMARK  206  A    between atoms: _479  and  _481
REMARK  207  A    between atoms: _481  and  _482
REMARK  208  A    between atoms: _484  and  _486
REMARK  209  A    between atoms: _486  and  _487
REMARK  210  A    between atoms: _486  and  _489
REMARK  211  A    between atoms: _489  and  _490
REMARK  212  A    between atoms: _493  and  _495
REMARK  213  A    between atoms: _495  and  _496
REMARK  214  A    between atoms: _495  and  _498
REMARK  215  A    between atoms: _498  and  _499
REMARK  216  A    between atoms: _499  and  _500
REMARK  217  A    between atoms: _500  and  _501
REMARK  218  A    between atoms: _501  and  _502
REMARK  219  A    between atoms: _506  and  _508
REMARK  220  A    between atoms: _508  and  _509
REMARK  221  A    between atoms: _508  and  _511
REMARK                            x       y       z     vdW  Elec       q    Type
REMARK                         _______ _______ _______ _____ _____    ______ ____
ROOT
ATOM      1  O   HOH     1     -26.532  25.372 -17.796  0.00  0.00    +0.000 OA
ENDROOT
TORSDOF 0
REMARK  Name = ../refined-set-2016/3wha/3wha_pocket.pdb
REMARK  221 active torsions:
REMARK  status: ('A' for Active; 'I' for Inactive)
REMARK    1  A    between atoms: _1  and  _3
REMARK    2  A    between atoms: _3  and  _4
REMARK    3  A    between atoms: _3  and  _6
REMARK    4  A    between atoms: _6  and  _7
REMARK    5  A    between atoms: _10  and  _12
REMARK    6  A    between atoms: _12  and  _13
REMARK    7  A    between atoms: _12  and  _15
REMARK    8  A    between atoms: _15  and  _16
REMARK    9  A    between atoms: _19  and  _21
REMARK   10  A    between atoms: _21  and  _22
REMARK   11  A    between atoms: _21  and  _24
REMARK   12  A    between atoms: _24  and  _25
REMARK   13  A    between atoms: _25  and  _26
REMARK   14  A    between atoms: _29  and  _31
REMARK   15  A    between atoms: _31  and  _32
REMARK   16  A    between atoms: _31  and  _34
REMARK   17  A    between atoms: _34  and  _35
REMARK   18  A    between atoms: _38  and  _40
REMARK   19  A    between atoms: _40  and  _41
REMARK   20  A    between atoms: _40  and  _43
REMARK   21  A    between atoms: _43  and  _44
REMARK   22  A    between atoms: _47  and  _49
REMARK   23  A    between atoms: _49  and  _50
REMARK   24  A    between atoms: _49  and  _52
REMARK   25  A    between atoms: _52  and  _53
REMARK   26  A    between atoms: _55  and  _57
REMARK   27  A    between atoms: _57  and  _58
REMARK   28  A    between atoms: _57  and  _60
REMARK   29  A    between atoms: _60  and  _61
REMARK   30  A    between atoms: _66  and  _68
REMARK   31  A    between atoms: _68  and  _69
REMARK   32  A    between atoms: _68  and  _71
REMARK   33  A    between atoms: _71  and  _72
REMARK   34  A    between atoms: _74  and  _76
REMARK   35  A    between atoms: _76  and  _77
REMARK   36  A    between atoms: _76  and  _79
REMARK   37  A    between atoms: _79  and  _80
REMARK   38  A    between atoms: _82  and  _84
REMARK   39  A    between atoms: _84  and  _85
REMARK   40  A    between atoms: _84  and  _87
REMARK   41  A    between atoms: _87  and  _88
REMARK   42  A    between atoms: _91  and  _93
REMARK   43  A    between atoms: _93  and  _94
REMARK   44  A    between atoms: _97  and  _99
REMARK   45  A    between atoms: _99  and  _100
REMARK   46  A    between atoms: _99  and  _102
REMARK   47  A    between atoms: _102  and  _103
REMARK   48  A    between atoms: _106  and  _108
REMARK   49  A    between atoms: _108  and  _109
REMARK   50  A    between atoms: _108  and  _111
REMARK   51  A    between atoms: _111  and  _112
REMARK   52  A    between atoms: _115  and  _117
REMARK   53  A    between atoms: _117  and  _118
REMARK   54  A    between atoms: _117  and  _120
REMARK   55  A    between atoms: _120  and  _121
REMARK   56  A    between atoms: _121  and  _122
REMARK   57  A    between atoms: _122  and  _123
REMARK   58  A    between atoms: _123  and  _124
REMARK   59  A    between atoms: _128  and  _130
REMARK   60  A    between atoms: _130  and  _131
REMARK   61  A    between atoms: _130  and  _133
REMARK   62  A    between atoms: _133  and  _134
REMARK   63  A    between atoms: _137  and  _139
REMARK   64  A    between atoms: _139  and  _140
REMARK   65  A    between atoms: _139  and  _142
REMARK   66  A    between atoms: _142  and  _143
REMARK   67  A    between atoms: _143  and  _144
REMARK   68  A    between atoms: _147  and  _149
REMARK   69  A    between atoms: _149  and  _150
REMARK   70  A    between atoms: _149  and  _152
REMARK   71  A    between atoms: _152  and  _153
REMARK   72  A    between atoms: _156  and  _158
REMARK   73  A    between atoms: _158  and  _159
REMARK   74  A    between atoms: _158  and  _161
REMARK   75  A    between atoms: _164  and  _166
REMARK   76  A    between atoms: _166  and  _167
REMARK   77  A    between atoms: _166  and  _169
REMARK   78  A    between atoms: _169  and  _170
REMARK   79  A    between atoms: _173  and  _175
REMARK   80  A    between atoms: _175  and  _176
REMARK   81  A    between atoms: _175  and  _178
REMARK   82  A    between atoms: _178  and  _179
REMARK   83  A    between atoms: _182  and  _184
REMARK   84  A    between atoms: _184  and  _185
REMARK   85  A    between atoms: _187  and  _189
REMARK   86  A    between atoms: _189  and  _190
REMARK   87  A    between atoms: _189  and  _192
REMARK   88  A    between atoms: _192  and  _193
REMARK   89  A    between atoms: _196  and  _198
REMARK   90  A    between atoms: _198  and  _199
REMARK   91  A    between atoms: _201  and  _203
REMARK   92  A    between atoms: _203  and  _204
REMARK   93  A    between atoms: _203  and  _206
REMARK   94  A    between atoms: _206  and  _207
REMARK   95  A    between atoms: _207  and  _208
REMARK   96  A    between atoms: _210  and  _212
REMARK   97  A    between atoms: _212  and  _213
REMARK   98  A    between atoms: _212  and  _215
REMARK   99  A    between atoms: _215  and  _216
REMARK  100  A    between atoms: _219  and  _221
REMARK  101  A    between atoms: _221  and  _222
REMARK  102  A    between atoms: _221  and  _224
REMARK  103  A    between atoms: _224  and  _225
REMARK  104  A    between atoms: _228  and  _230
REMARK  105  A    between atoms: _230  and  _231
REMARK  106  A    between atoms: _230  and  _233
REMARK  107  A    between atoms: _233  and  _234
REMARK  108  A    between atoms: _237  and  _239
REMARK  109  A    between atoms: _239  and  _240
REMARK  110  A    between atoms: _239  and  _242
REMARK  111  A    between atoms: _242  and  _243
REMARK  112  A    between atoms: _248  and  _250
REMARK  113  A    between atoms: _250  and  _251
REMARK  114  A    between atoms: _250  and  _253
REMARK  115  A    between atoms: _253  and  _254
REMARK  116  A    between atoms: _259  and  _261
REMARK  117  A    between atoms: _261  and  _262
REMARK  118  A    between atoms: _261  and  _264
REMARK  119  A    between atoms: _264  and  _265
REMARK  120  A    between atoms: _268  and  _270
REMARK  121  A    between atoms: _270  and  _271
REMARK  122  A    between atoms: _273  and  _275
REMARK  123  A    between atoms: _275  and  _276
REMARK  124  A    between atoms: _275  and  _278
REMARK  125  A    between atoms: _278  and  _279
REMARK  126  A    between atoms: _282  and  _284
REMARK  127  A    between atoms: _284  and  _285
REMARK  128  A    between atoms: _284  and  _287
REMARK  129  A    between atoms: _287  and  _288
REMARK  130  A    between atoms: _291  and  _293
REMARK  131  A    between atoms: _293  and  _294
REMARK  132  A    between atoms: _297  and  _299
REMARK  133  A    between atoms: _299  and  _300
REMARK  134  A    between atoms: _299  and  _302
REMARK  135  A    between atoms: _302  and  _303
REMARK  136  A    between atoms: _303  and  _304
REMARK  137  A    between atoms: _304  and  _305
REMARK  138  A    between atoms: _305  and  _306
REMARK  139  A    between atoms: _310  and  _312
REMARK  140  A    between atoms: _312  and  _313
REMARK  141  A    between atoms: _312  and  _315
REMARK  142  A    between atoms: _315  and  _316
REMARK  143  A    between atoms: _318  and  _320
REMARK  144  A    between atoms: _320  and  _321
REMARK  145  A    between atoms: _323  and  _325
REMARK  146  A    between atoms: _325  and  _326
REMARK  147  A    between atoms: _325  and  _328
REMARK  148  A    between atoms: _328  and  _329
REMARK  149  A    between atoms: _332  and  _334
REMARK  150  A    between atoms: _334  and  _335
REMARK  151  A    between atoms: _334  and  _337
REMARK  152  A    between atoms: _337  and  _338
REMARK  153  A    between atoms: _344  and  _346
REMARK  154  A    between atoms: _346  and  _347
REMARK  155  A    between atoms: _349  and  _351
REMARK  156  A    between atoms: _351  and  _352
REMARK  157  A    between atoms: _351  and  _354
REMARK  158  A    between atoms: _357  and  _359
REMARK  159  A    between atoms: _359  and  _360
REMARK  160  A    between atoms: _362  and  _364
REMARK  161  A    between atoms: _364  and  _365
REMARK  162  A    between atoms: _364  and  _367
REMARK  163  A    between atoms: _367  and  _368
REMARK  164  A    between atoms: _374  and  _376
REMARK  165  A    between atoms: _376  and  _377
REMARK  166  A    between atoms: _376  and  _379
REMARK  167  A    between atoms: _379  and  _380
REMARK  168  A    between atoms: _385  and  _386
REMARK  169  A    between atoms: _388  and  _390
REMARK  170  A    between atoms: _390  and  _391
REMARK  171  A    between atoms: _390  and  _393
REMARK  172  A    between atoms: _393  and  _394
REMARK  173  A    between atoms: _396  and  _398
REMARK  174  A    between atoms: _398  and  _399
REMARK  175  A    between atoms: _398  and  _401
REMARK  176  A    between atoms: _404  and  _406
REMARK  177  A    between atoms: _406  and  _407
REMARK  178  A    between atoms: _406  and  _409
REMARK  179  A    between atoms: _409  and  _410
REMARK  180  A    between atoms: _413  and  _415
REMARK  181  A    between atoms: _415  and  _416
REMARK  182  A    between atoms: _415  and  _418
REMARK  183  A    between atoms: _421  and  _423
REMARK  184  A    between atoms: _423  and  _424
REMARK  185  A    between atoms: _423  and  _426
REMARK  186  A    between atoms: _426  and  _427
REMARK  187  A    between atoms: _430  and  _432
REMARK  188  A    between atoms: _432  and  _433
REMARK  189  A    between atoms: _432  and  _435
REMARK  190  A    between atoms: _435  and  _436
REMARK  191  A    between atoms: _439  and  _441
REMARK  192  A    between atoms: _441  and  _442
REMARK  193  A    between atoms: _441  and  _444
REMARK  194  A    between atoms: _444  and  _445
REMARK  195  A    between atoms: _445  and  _446
REMARK  196  A    between atoms: _446  and  _447
REMARK  197  A    between atoms: _447  and  _448
REMARK  198  A    between atoms: _452  and  _454
REMARK  199  A    between atoms: _454  and  _455
REMARK  200  A    between atoms: _454  and  _457
REMARK  201  A    between atoms: _457  and  _458
REMARK  202  A    between atoms: _463  and  _465
REMARK  203  A    between atoms: _465  and  _466
REMARK  204  A    between atoms: _465  and  _468
REMARK  205  A    between atoms: _468  and  _469
REMARK  206  A    between atoms: _479  and  _481
REMARK  207  A    between atoms: _481  and  _482
REMARK  208  A    between atoms: _484  and  _486
REMARK  209  A    between atoms: _486  and  _487
REMARK  210  A    between atoms: _486  and  _489
REMARK  211  A    between atoms: _489  and  _490
REMARK  212  A    between atoms: _493  and  _495
REMARK  213  A    between atoms: _495  and  _496
REMARK  214  A    between atoms: _495  and  _498
REMARK  215  A    between atoms: _498  and  _499
REMARK  216  A    between atoms: _499  and  _500
REMARK  217  A    between atoms: _500  and  _501
REMARK  218  A    between atoms: _501  and  _502
REMARK  219  A    between atoms: _506  and  _508
REMARK  220  A    between atoms: _508  and  _509
REMARK  221  A    between atoms: _508  and  _511
REMARK                            x       y       z     vdW  Elec       q    Type
REMARK                         _______ _______ _______ _____ _____    ______ ____
ROOT
ATOM      1  O   HOH     1     -26.287  26.234 -23.261  0.00  0.00    +0.000 OA
ENDROOT
TORSDOF 0
REMARK  Name = ../refined-set-2016/3wha/3wha_pocket.pdb
REMARK  221 active torsions:
REMARK  status: ('A' for Active; 'I' for Inactive)
REMARK    1  A    between atoms: _1  and  _3
REMARK    2  A    between atoms: _3  and  _4
REMARK    3  A    between atoms: _3  and  _6
REMARK    4  A    between atoms: _6  and  _7
REMARK    5  A    between atoms: _10  and  _12
REMARK    6  A    between atoms: _12  and  _13
REMARK    7  A    between atoms: _12  and  _15
REMARK    8  A    between atoms: _15  and  _16
REMARK    9  A    between atoms: _19  and  _21
REMARK   10  A    between atoms: _21  and  _22
REMARK   11  A    between atoms: _21  and  _24
REMARK   12  A    between atoms: _24  and  _25
REMARK   13  A    between atoms: _25  and  _26
REMARK   14  A    between atoms: _29  and  _31
REMARK   15  A    between atoms: _31  and  _32
REMARK   16  A    between atoms: _31  and  _34
REMARK   17  A    between atoms: _34  and  _35
REMARK   18  A    between atoms: _38  and  _40
REMARK   19  A    between atoms: _40  and  _41
REMARK   20  A    between atoms: _40  and  _43
REMARK   21  A    between atoms: _43  and  _44
REMARK   22  A    between atoms: _47  and  _49
REMARK   23  A    between atoms: _49  and  _50
REMARK   24  A    between atoms: _49  and  _52
REMARK   25  A    between atoms: _52  and  _53
REMARK   26  A    between atoms: _55  and  _57
REMARK   27  A    between atoms: _57  and  _58
REMARK   28  A    between atoms: _57  and  _60
REMARK   29  A    between atoms: _60  and  _61
REMARK   30  A    between atoms: _66  and  _68
REMARK   31  A    between atoms: _68  and  _69
REMARK   32  A    between atoms: _68  and  _71
REMARK   33  A    between atoms: _71  and  _72
REMARK   34  A    between atoms: _74  and  _76
REMARK   35  A    between atoms: _76  and  _77
REMARK   36  A    between atoms: _76  and  _79
REMARK   37  A    between atoms: _79  and  _80
REMARK   38  A    between atoms: _82  and  _84
REMARK   39  A    between atoms: _84  and  _85
REMARK   40  A    between atoms: _84  and  _87
REMARK   41  A    between atoms: _87  and  _88
REMARK   42  A    between atoms: _91  and  _93
REMARK   43  A    between atoms: _93  and  _94
REMARK   44  A    between atoms: _97  and  _99
REMARK   45  A    between atoms: _99  and  _100
REMARK   46  A    between atoms: _99  and  _102
REMARK   47  A    between atoms: _102  and  _103
REMARK   48  A    between atoms: _106  and  _108
REMARK   49  A    between atoms: _108  and  _109
REMARK   50  A    between atoms: _108  and  _111
REMARK   51  A    between atoms: _111  and  _112
REMARK   52  A    between atoms: _115  and  _117
REMARK   53  A    between atoms: _117  and  _118
REMARK   54  A    between atoms: _117  and  _120
REMARK   55  A    between atoms: _120  and  _121
REMARK   56  A    between atoms: _121  and  _122
REMARK   57  A    between atoms: _122  and  _123
REMARK   58  A    between atoms: _123  and  _124
REMARK   59  A    between atoms: _128  and  _130
REMARK   60  A    between atoms: _130  and  _131
REMARK   61  A    between atoms: _130  and  _133
REMARK   62  A    between atoms: _133  and  _134
REMARK   63  A    between atoms: _137  and  _139
REMARK   64  A    between atoms: _139  and  _140
REMARK   65  A    between atoms: _139  and  _142
REMARK   66  A    between atoms: _142  and  _143
REMARK   67  A    between atoms: _143  and  _144
REMARK   68  A    between atoms: _147  and  _149
REMARK   69  A    between atoms: _149  and  _150
REMARK   70  A    between atoms: _149  and  _152
REMARK   71  A    between atoms: _152  and  _153
REMARK   72  A    between atoms: _156  and  _158
REMARK   73  A    between atoms: _158  and  _159
REMARK   74  A    between atoms: _158  and  _161
REMARK   75  A    between atoms: _164  and  _166
REMARK   76  A    between atoms: _166  and  _167
REMARK   77  A    between atoms: _166  and  _169
REMARK   78  A    between atoms: _169  and  _170
REMARK   79  A    between atoms: _173  and  _175
REMARK   80  A    between atoms: _175  and  _176
REMARK   81  A    between atoms: _175  and  _178
REMARK   82  A    between atoms: _178  and  _179
REMARK   83  A    between atoms: _182  and  _184
REMARK   84  A    between atoms: _184  and  _185
REMARK   85  A    between atoms: _187  and  _189
REMARK   86  A    between atoms: _189  and  _190
REMARK   87  A    between atoms: _189  and  _192
REMARK   88  A    between atoms: _192  and  _193
REMARK   89  A    between atoms: _196  and  _198
REMARK   90  A    between atoms: _198  and  _199
REMARK   91  A    between atoms: _201  and  _203
REMARK   92  A    between atoms: _203  and  _204
REMARK   93  A    between atoms: _203  and  _206
REMARK   94  A    between atoms: _206  and  _207
REMARK   95  A    between atoms: _207  and  _208
REMARK   96  A    between atoms: _210  and  _212
REMARK   97  A    between atoms: _212  and  _213
REMARK   98  A    between atoms: _212  and  _215
REMARK   99  A    between atoms: _215  and  _216
REMARK  100  A    between atoms: _219  and  _221
REMARK  101  A    between atoms: _221  and  _222
REMARK  102  A    between atoms: _221  and  _224
REMARK  103  A    between atoms: _224  and  _225
REMARK  104  A    between atoms: _228  and  _230
REMARK  105  A    between atoms: _230  and  _231
REMARK  106  A    between atoms: _230  and  _233
REMARK  107  A    between atoms: _233  and  _234
REMARK  108  A    between atoms: _237  and  _239
REMARK  109  A    between atoms: _239  and  _240
REMARK  110  A    between atoms: _239  and  _242
REMARK  111  A    between atoms: _242  and  _243
REMARK  112  A    between atoms: _248  and  _250
REMARK  113  A    between atoms: _250  and  _251
REMARK  114  A    between atoms: _250  and  _253
REMARK  115  A    between atoms: _253  and  _254
REMARK  116  A    between atoms: _259  and  _261
REMARK  117  A    between atoms: _261  and  _262
REMARK  118  A    between atoms: _261  and  _264
REMARK  119  A    between atoms: _264  and  _265
REMARK  120  A    between atoms: _268  and  _270
REMARK  121  A    between atoms: _270  and  _271
REMARK  122  A    between atoms: _273  and  _275
REMARK  123  A    between atoms: _275  and  _276
REMARK  124  A    between atoms: _275  and  _278
REMARK  125  A    between atoms: _278  and  _279
REMARK  126  A    between atoms: _282  and  _284
REMARK  127  A    between atoms: _284  and  _285
REMARK  128  A    between atoms: _284  and  _287
REMARK  129  A    between atoms: _287  and  _288
REMARK  130  A    between atoms: _291  and  _293
REMARK  131  A    between atoms: _293  and  _294
REMARK  132  A    between atoms: _297  and  _299
REMARK  133  A    between atoms: _299  and  _300
REMARK  134  A    between atoms: _299  and  _302
REMARK  135  A    between atoms: _302  and  _303
REMARK  136  A    between atoms: _303  and  _304
REMARK  137  A    between atoms: _304  and  _305
REMARK  138  A    between atoms: _305  and  _306
REMARK  139  A    between atoms: _310  and  _312
REMARK  140  A    between atoms: _312  and  _313
REMARK  141  A    between atoms: _312  and  _315
REMARK  142  A    between atoms: _315  and  _316
REMARK  143  A    between atoms: _318  and  _320
REMARK  144  A    between atoms: _320  and  _321
REMARK  145  A    between atoms: _323  and  _325
REMARK  146  A    between atoms: _325  and  _326
REMARK  147  A    between atoms: _325  and  _328
REMARK  148  A    between atoms: _328  and  _329
REMARK  149  A    between atoms: _332  and  _334
REMARK  150  A    between atoms: _334  and  _335
REMARK  151  A    between atoms: _334  and  _337
REMARK  152  A    between atoms: _337  and  _338
REMARK  153  A    between atoms: _344  and  _346
REMARK  154  A    between atoms: _346  and  _347
REMARK  155  A    between atoms: _349  and  _351
REMARK  156  A    between atoms: _351  and  _352
REMARK  157  A    between atoms: _351  and  _354
REMARK  158  A    between atoms: _357  and  _359
REMARK  159  A    between atoms: _359  and  _360
REMARK  160  A    between atoms: _362  and  _364
REMARK  161  A    between atoms: _364  and  _365
REMARK  162  A    between atoms: _364  and  _367
REMARK  163  A    between atoms: _367  and  _368
REMARK  164  A    between atoms: _374  and  _376
REMARK  165  A    between atoms: _376  and  _377
REMARK  166  A    between atoms: _376  and  _379
REMARK  167  A    between atoms: _379  and  _380
REMARK  168  A    between atoms: _385  and  _386
REMARK  169  A    between atoms: _388  and  _390
REMARK  170  A    between atoms: _390  and  _391
REMARK  171  A    between atoms: _390  and  _393
REMARK  172  A    between atoms: _393  and  _394
REMARK  173  A    between atoms: _396  and  _398
REMARK  174  A    between atoms: _398  and  _399
REMARK  175  A    between atoms: _398  and  _401
REMARK  176  A    between atoms: _404  and  _406
REMARK  177  A    between atoms: _406  and  _407
REMARK  178  A    between atoms: _406  and  _409
REMARK  179  A    between atoms: _409  and  _410
REMARK  180  A    between atoms: _413  and  _415
REMARK  181  A    between atoms: _415  and  _416
REMARK  182  A    between atoms: _415  and  _418
REMARK  183  A    between atoms: _421  and  _423
REMARK  184  A    between atoms: _423  and  _424
REMARK  185  A    between atoms: _423  and  _426
REMARK  186  A    between atoms: _426  and  _427
REMARK  187  A    between atoms: _430  and  _432
REMARK  188  A    between atoms: _432  and  _433
REMARK  189  A    between atoms: _432  and  _435
REMARK  190  A    between atoms: _435  and  _436
REMARK  191  A    between atoms: _439  and  _441
REMARK  192  A    between atoms: _441  and  _442
REMARK  193  A    between atoms: _441  and  _444
REMARK  194  A    between atoms: _444  and  _445
REMARK  195  A    between atoms: _445  and  _446
REMARK  196  A    between atoms: _446  and  _447
REMARK  197  A    between atoms: _447  and  _448
REMARK  198  A    between atoms: _452  and  _454
REMARK  199  A    between atoms: _454  and  _455
REMARK  200  A    between atoms: _454  and  _457
REMARK  201  A    between atoms: _457  and  _458
REMARK  202  A    between atoms: _463  and  _465
REMARK  203  A    between atoms: _465  and  _466
REMARK  204  A    between atoms: _465  and  _468
REMARK  205  A    between atoms: _468  and  _469
REMARK  206  A    between atoms: _479  and  _481
REMARK  207  A    between atoms: _481  and  _482
REMARK  208  A    between atoms: _484  and  _486
REMARK  209  A    between atoms: _486  and  _487
REMARK  210  A    between atoms: _486  and  _489
REMARK  211  A    between atoms: _489  and  _490
REMARK  212  A    between atoms: _493  and  _495
REMARK  213  A    between atoms: _495  and  _496
REMARK  214  A    between atoms: _495  and  _498
REMARK  215  A    between atoms: _498  and  _499
REMARK  216  A    between atoms: _499  and  _500
REMARK  217  A    between atoms: _500  and  _501
REMARK  218  A    between atoms: _501  and  _502
REMARK  219  A    between atoms: _506  and  _508
REMARK  220  A    between atoms: _508  and  _509
REMARK  221  A    between atoms: _508  and  _511
REMARK                            x       y       z     vdW  Elec       q    Type
REMARK                         _______ _______ _______ _____ _____    ______ ____
ROOT
ATOM      1  O   HOH     1     -27.630  24.341 -12.916  0.00  0.00    +0.000 OA
ENDROOT
TORSDOF 0
REMARK  Name = ../refined-set-2016/3wha/3wha_pocket.pdb
REMARK  221 active torsions:
REMARK  status: ('A' for Active; 'I' for Inactive)
REMARK    1  A    between atoms: _1  and  _3
REMARK    2  A    between atoms: _3  and  _4
REMARK    3  A    between atoms: _3  and  _6
REMARK    4  A    between atoms: _6  and  _7
REMARK    5  A    between atoms: _10  and  _12
REMARK    6  A    between atoms: _12  and  _13
REMARK    7  A    between atoms: _12  and  _15
REMARK    8  A    between atoms: _15  and  _16
REMARK    9  A    between atoms: _19  and  _21
REMARK   10  A    between atoms: _21  and  _22
REMARK   11  A    between atoms: _21  and  _24
REMARK   12  A    between atoms: _24  and  _25
REMARK   13  A    between atoms: _25  and  _26
REMARK   14  A    between atoms: _29  and  _31
REMARK   15  A    between atoms: _31  and  _32
REMARK   16  A    between atoms: _31  and  _34
REMARK   17  A    between atoms: _34  and  _35
REMARK   18  A    between atoms: _38  and  _40
REMARK   19  A    between atoms: _40  and  _41
REMARK   20  A    between atoms: _40  and  _43
REMARK   21  A    between atoms: _43  and  _44
REMARK   22  A    between atoms: _47  and  _49
REMARK   23  A    between atoms: _49  and  _50
REMARK   24  A    between atoms: _49  and  _52
REMARK   25  A    between atoms: _52  and  _53
REMARK   26  A    between atoms: _55  and  _57
REMARK   27  A    between atoms: _57  and  _58
REMARK   28  A    between atoms: _57  and  _60
REMARK   29  A    between atoms: _60  and  _61
REMARK   30  A    between atoms: _66  and  _68
REMARK   31  A    between atoms: _68  and  _69
REMARK   32  A    between atoms: _68  and  _71
REMARK   33  A    between atoms: _71  and  _72
REMARK   34  A    between atoms: _74  and  _76
REMARK   35  A    between atoms: _76  and  _77
REMARK   36  A    between atoms: _76  and  _79
REMARK   37  A    between atoms: _79  and  _80
REMARK   38  A    between atoms: _82  and  _84
REMARK   39  A    between atoms: _84  and  _85
REMARK   40  A    between atoms: _84  and  _87
REMARK   41  A    between atoms: _87  and  _88
REMARK   42  A    between atoms: _91  and  _93
REMARK   43  A    between atoms: _93  and  _94
REMARK   44  A    between atoms: _97  and  _99
REMARK   45  A    between atoms: _99  and  _100
REMARK   46  A    between atoms: _99  and  _102
REMARK   47  A    between atoms: _102  and  _103
REMARK   48  A    between atoms: _106  and  _108
REMARK   49  A    between atoms: _108  and  _109
REMARK   50  A    between atoms: _108  and  _111
REMARK   51  A    between atoms: _111  and  _112
REMARK   52  A    between atoms: _115  and  _117
REMARK   53  A    between atoms: _117  and  _118
REMARK   54  A    between atoms: _117  and  _120
REMARK   55  A    between atoms: _120  and  _121
REMARK   56  A    between atoms: _121  and  _122
REMARK   57  A    between atoms: _122  and  _123
REMARK   58  A    between atoms: _123  and  _124
REMARK   59  A    between atoms: _128  and  _130
REMARK   60  A    between atoms: _130  and  _131
REMARK   61  A    between atoms: _130  and  _133
REMARK   62  A    between atoms: _133  and  _134
REMARK   63  A    between atoms: _137  and  _139
REMARK   64  A    between atoms: _139  and  _140
REMARK   65  A    between atoms: _139  and  _142
REMARK   66  A    between atoms: _142  and  _143
REMARK   67  A    between atoms: _143  and  _144
REMARK   68  A    between atoms: _147  and  _149
REMARK   69  A    between atoms: _149  and  _150
REMARK   70  A    between atoms: _149  and  _152
REMARK   71  A    between atoms: _152  and  _153
REMARK   72  A    between atoms: _156  and  _158
REMARK   73  A    between atoms: _158  and  _159
REMARK   74  A    between atoms: _158  and  _161
REMARK   75  A    between atoms: _164  and  _166
REMARK   76  A    between atoms: _166  and  _167
REMARK   77  A    between atoms: _166  and  _169
REMARK   78  A    between atoms: _169  and  _170
REMARK   79  A    between atoms: _173  and  _175
REMARK   80  A    between atoms: _175  and  _176
REMARK   81  A    between atoms: _175  and  _178
REMARK   82  A    between atoms: _178  and  _179
REMARK   83  A    between atoms: _182  and  _184
REMARK   84  A    between atoms: _184  and  _185
REMARK   85  A    between atoms: _187  and  _189
REMARK   86  A    between atoms: _189  and  _190
REMARK   87  A    between atoms: _189  and  _192
REMARK   88  A    between atoms: _192  and  _193
REMARK   89  A    between atoms: _196  and  _198
REMARK   90  A    between atoms: _198  and  _199
REMARK   91  A    between atoms: _201  and  _203
REMARK   92  A    between atoms: _203  and  _204
REMARK   93  A    between atoms: _203  and  _206
REMARK   94  A    between atoms: _206  and  _207
REMARK   95  A    between atoms: _207  and  _208
REMARK   96  A    between atoms: _210  and  _212
REMARK   97  A    between atoms: _212  and  _213
REMARK   98  A    between atoms: _212  and  _215
REMARK   99  A    between atoms: _215  and  _216
REMARK  100  A    between atoms: _219  and  _221
REMARK  101  A    between atoms: _221  and  _222
REMARK  102  A    between atoms: _221  and  _224
REMARK  103  A    between atoms: _224  and  _225
REMARK  104  A    between atoms: _228  and  _230
REMARK  105  A    between atoms: _230  and  _231
REMARK  106  A    between atoms: _230  and  _233
REMARK  107  A    between atoms: _233  and  _234
REMARK  108  A    between atoms: _237  and  _239
REMARK  109  A    between atoms: _239  and  _240
REMARK  110  A    between atoms: _239  and  _242
REMARK  111  A    between atoms: _242  and  _243
REMARK  112  A    between atoms: _248  and  _250
REMARK  113  A    between atoms: _250  and  _251
REMARK  114  A    between atoms: _250  and  _253
REMARK  115  A    between atoms: _253  and  _254
REMARK  116  A    between atoms: _259  and  _261
REMARK  117  A    between atoms: _261  and  _262
REMARK  118  A    between atoms: _261  and  _264
REMARK  119  A    between atoms: _264  and  _265
REMARK  120  A    between atoms: _268  and  _270
REMARK  121  A    between atoms: _270  and  _271
REMARK  122  A    between atoms: _273  and  _275
REMARK  123  A    between atoms: _275  and  _276
REMARK  124  A    between atoms: _275  and  _278
REMARK  125  A    between atoms: _278  and  _279
REMARK  126  A    between atoms: _282  and  _284
REMARK  127  A    between atoms: _284  and  _285
REMARK  128  A    between atoms: _284  and  _287
REMARK  129  A    between atoms: _287  and  _288
REMARK  130  A    between atoms: _291  and  _293
REMARK  131  A    between atoms: _293  and  _294
REMARK  132  A    between atoms: _297  and  _299
REMARK  133  A    between atoms: _299  and  _300
REMARK  134  A    between atoms: _299  and  _302
REMARK  135  A    between atoms: _302  and  _303
REMARK  136  A    between atoms: _303  and  _304
REMARK  137  A    between atoms: _304  and  _305
REMARK  138  A    between atoms: _305  and  _306
REMARK  139  A    between atoms: _310  and  _312
REMARK  140  A    between atoms: _312  and  _313
REMARK  141  A    between atoms: _312  and  _315
REMARK  142  A    between atoms: _315  and  _316
REMARK  143  A    between atoms: _318  and  _320
REMARK  144  A    between atoms: _320  and  _321
REMARK  145  A    between atoms: _323  and  _325
REMARK  146  A    between atoms: _325  and  _326
REMARK  147  A    between atoms: _325  and  _328
REMARK  148  A    between atoms: _328  and  _329
REMARK  149  A    between atoms: _332  and  _334
REMARK  150  A    between atoms: _334  and  _335
REMARK  151  A    between atoms: _334  and  _337
REMARK  152  A    between atoms: _337  and  _338
REMARK  153  A    between atoms: _344  and  _346
REMARK  154  A    between atoms: _346  and  _347
REMARK  155  A    between atoms: _349  and  _351
REMARK  156  A    between atoms: _351  and  _352
REMARK  157  A    between atoms: _351  and  _354
REMARK  158  A    between atoms: _357  and  _359
REMARK  159  A    between atoms: _359  and  _360
REMARK  160  A    between atoms: _362  and  _364
REMARK  161  A    between atoms: _364  and  _365
REMARK  162  A    between atoms: _364  and  _367
REMARK  163  A    between atoms: _367  and  _368
REMARK  164  A    between atoms: _374  and  _376
REMARK  165  A    between atoms: _376  and  _377
REMARK  166  A    between atoms: _376  and  _379
REMARK  167  A    between atoms: _379  and  _380
REMARK  168  A    between atoms: _385  and  _386
REMARK  169  A    between atoms: _388  and  _390
REMARK  170  A    between atoms: _390  and  _391
REMARK  171  A    between atoms: _390  and  _393
REMARK  172  A    between atoms: _393  and  _394
REMARK  173  A    between atoms: _396  and  _398
REMARK  174  A    between atoms: _398  and  _399
REMARK  175  A    between atoms: _398  and  _401
REMARK  176  A    between atoms: _404  and  _406
REMARK  177  A    between atoms: _406  and  _407
REMARK  178  A    between atoms: _406  and  _409
REMARK  179  A    between atoms: _409  and  _410
REMARK  180  A    between atoms: _413  and  _415
REMARK  181  A    between atoms: _415  and  _416
REMARK  182  A    between atoms: _415  and  _418
REMARK  183  A    between atoms: _421  and  _423
REMARK  184  A    between atoms: _423  and  _424
REMARK  185  A    between atoms: _423  and  _426
REMARK  186  A    between atoms: _426  and  _427
REMARK  187  A    between atoms: _430  and  _432
REMARK  188  A    between atoms: _432  and  _433
REMARK  189  A    between atoms: _432  and  _435
REMARK  190  A    between atoms: _435  and  _436
REMARK  191  A    between atoms: _439  and  _441
REMARK  192  A    between atoms: _441  and  _442
REMARK  193  A    between atoms: _441  and  _444
REMARK  194  A    between atoms: _444  and  _445
REMARK  195  A    between atoms: _445  and  _446
REMARK  196  A    between atoms: _446  and  _447
REMARK  197  A    between atoms: _447  and  _448
REMARK  198  A    between atoms: _452  and  _454
REMARK  199  A    between atoms: _454  and  _455
REMARK  200  A    between atoms: _454  and  _457
REMARK  201  A    between atoms: _457  and  _458
REMARK  202  A    between atoms: _463  and  _465
REMARK  203  A    between atoms: _465  and  _466
REMARK  204  A    between atoms: _465  and  _468
REMARK  205  A    between atoms: _468  and  _469
REMARK  206  A    between atoms: _479  and  _481
REMARK  207  A    between atoms: _481  and  _482
REMARK  208  A    between atoms: _484  and  _486
REMARK  209  A    between atoms: _486  and  _487
REMARK  210  A    between atoms: _486  and  _489
REMARK  211  A    between atoms: _489  and  _490
REMARK  212  A    between atoms: _493  and  _495
REMARK  213  A    between atoms: _495  and  _496
REMARK  214  A    between atoms: _495  and  _498
REMARK  215  A    between atoms: _498  and  _499
REMARK  216  A    between atoms: _499  and  _500
REMARK  217  A    between atoms: _500  and  _501
REMARK  218  A    between atoms: _501  and  _502
REMARK  219  A    between atoms: _506  and  _508
REMARK  220  A    between atoms: _508  and  _509
REMARK  221  A    between atoms: _508  and  _511
REMARK                            x       y       z     vdW  Elec       q    Type
REMARK                         _______ _______ _______ _____ _____    ______ ____
ROOT
ATOM      1  O   HOH     1     -38.019  26.555 -19.317  0.00  0.00    +0.000 OA
ENDROOT
TORSDOF 0
REMARK  Name = ../refined-set-2016/3wha/3wha_pocket.pdb
REMARK  221 active torsions:
REMARK  status: ('A' for Active; 'I' for Inactive)
REMARK    1  A    between atoms: _1  and  _3
REMARK    2  A    between atoms: _3  and  _4
REMARK    3  A    between atoms: _3  and  _6
REMARK    4  A    between atoms: _6  and  _7
REMARK    5  A    between atoms: _10  and  _12
REMARK    6  A    between atoms: _12  and  _13
REMARK    7  A    between atoms: _12  and  _15
REMARK    8  A    between atoms: _15  and  _16
REMARK    9  A    between atoms: _19  and  _21
REMARK   10  A    between atoms: _21  and  _22
REMARK   11  A    between atoms: _21  and  _24
REMARK   12  A    between atoms: _24  and  _25
REMARK   13  A    between atoms: _25  and  _26
REMARK   14  A    between atoms: _29  and  _31
REMARK   15  A    between atoms: _31  and  _32
REMARK   16  A    between atoms: _31  and  _34
REMARK   17  A    between atoms: _34  and  _35
REMARK   18  A    between atoms: _38  and  _40
REMARK   19  A    between atoms: _40  and  _41
REMARK   20  A    between atoms: _40  and  _43
REMARK   21  A    between atoms: _43  and  _44
REMARK   22  A    between atoms: _47  and  _49
REMARK   23  A    between atoms: _49  and  _50
REMARK   24  A    between atoms: _49  and  _52
REMARK   25  A    between atoms: _52  and  _53
REMARK   26  A    between atoms: _55  and  _57
REMARK   27  A    between atoms: _57  and  _58
REMARK   28  A    between atoms: _57  and  _60
REMARK   29  A    between atoms: _60  and  _61
REMARK   30  A    between atoms: _66  and  _68
REMARK   31  A    between atoms: _68  and  _69
REMARK   32  A    between atoms: _68  and  _71
REMARK   33  A    between atoms: _71  and  _72
REMARK   34  A    between atoms: _74  and  _76
REMARK   35  A    between atoms: _76  and  _77
REMARK   36  A    between atoms: _76  and  _79
REMARK   37  A    between atoms: _79  and  _80
REMARK   38  A    between atoms: _82  and  _84
REMARK   39  A    between atoms: _84  and  _85
REMARK   40  A    between atoms: _84  and  _87
REMARK   41  A    between atoms: _87  and  _88
REMARK   42  A    between atoms: _91  and  _93
REMARK   43  A    between atoms: _93  and  _94
REMARK   44  A    between atoms: _97  and  _99
REMARK   45  A    between atoms: _99  and  _100
REMARK   46  A    between atoms: _99  and  _102
REMARK   47  A    between atoms: _102  and  _103
REMARK   48  A    between atoms: _106  and  _108
REMARK   49  A    between atoms: _108  and  _109
REMARK   50  A    between atoms: _108  and  _111
REMARK   51  A    between atoms: _111  and  _112
REMARK   52  A    between atoms: _115  and  _117
REMARK   53  A    between atoms: _117  and  _118
REMARK   54  A    between atoms: _117  and  _120
REMARK   55  A    between atoms: _120  and  _121
REMARK   56  A    between atoms: _121  and  _122
REMARK   57  A    between atoms: _122  and  _123
REMARK   58  A    between atoms: _123  and  _124
REMARK   59  A    between atoms: _128  and  _130
REMARK   60  A    between atoms: _130  and  _131
REMARK   61  A    between atoms: _130  and  _133
REMARK   62  A    between atoms: _133  and  _134
REMARK   63  A    between atoms: _137  and  _139
REMARK   64  A    between atoms: _139  and  _140
REMARK   65  A    between atoms: _139  and  _142
REMARK   66  A    between atoms: _142  and  _143
REMARK   67  A    between atoms: _143  and  _144
REMARK   68  A    between atoms: _147  and  _149
REMARK   69  A    between atoms: _149  and  _150
REMARK   70  A    between atoms: _149  and  _152
REMARK   71  A    between atoms: _152  and  _153
REMARK   72  A    between atoms: _156  and  _158
REMARK   73  A    between atoms: _158  and  _159
REMARK   74  A    between atoms: _158  and  _161
REMARK   75  A    between atoms: _164  and  _166
REMARK   76  A    between atoms: _166  and  _167
REMARK   77  A    between atoms: _166  and  _169
REMARK   78  A    between atoms: _169  and  _170
REMARK   79  A    between atoms: _173  and  _175
REMARK   80  A    between atoms: _175  and  _176
REMARK   81  A    between atoms: _175  and  _178
REMARK   82  A    between atoms: _178  and  _179
REMARK   83  A    between atoms: _182  and  _184
REMARK   84  A    between atoms: _184  and  _185
REMARK   85  A    between atoms: _187  and  _189
REMARK   86  A    between atoms: _189  and  _190
REMARK   87  A    between atoms: _189  and  _192
REMARK   88  A    between atoms: _192  and  _193
REMARK   89  A    between atoms: _196  and  _198
REMARK   90  A    between atoms: _198  and  _199
REMARK   91  A    between atoms: _201  and  _203
REMARK   92  A    between atoms: _203  and  _204
REMARK   93  A    between atoms: _203  and  _206
REMARK   94  A    between atoms: _206  and  _207
REMARK   95  A    between atoms: _207  and  _208
REMARK   96  A    between atoms: _210  and  _212
REMARK   97  A    between atoms: _212  and  _213
REMARK   98  A    between atoms: _212  and  _215
REMARK   99  A    between atoms: _215  and  _216
REMARK  100  A    between atoms: _219  and  _221
REMARK  101  A    between atoms: _221  and  _222
REMARK  102  A    between atoms: _221  and  _224
REMARK  103  A    between atoms: _224  and  _225
REMARK  104  A    between atoms: _228  and  _230
REMARK  105  A    between atoms: _230  and  _231
REMARK  106  A    between atoms: _230  and  _233
REMARK  107  A    between atoms: _233  and  _234
REMARK  108  A    between atoms: _237  and  _239
REMARK  109  A    between atoms: _239  and  _240
REMARK  110  A    between atoms: _239  and  _242
REMARK  111  A    between atoms: _242  and  _243
REMARK  112  A    between atoms: _248  and  _250
REMARK  113  A    between atoms: _250  and  _251
REMARK  114  A    between atoms: _250  and  _253
REMARK  115  A    between atoms: _253  and  _254
REMARK  116  A    between atoms: _259  and  _261
REMARK  117  A    between atoms: _261  and  _262
REMARK  118  A    between atoms: _261  and  _264
REMARK  119  A    between atoms: _264  and  _265
REMARK  120  A    between atoms: _268  and  _270
REMARK  121  A    between atoms: _270  and  _271
REMARK  122  A    between atoms: _273  and  _275
REMARK  123  A    between atoms: _275  and  _276
REMARK  124  A    between atoms: _275  and  _278
REMARK  125  A    between atoms: _278  and  _279
REMARK  126  A    between atoms: _282  and  _284
REMARK  127  A    between atoms: _284  and  _285
REMARK  128  A    between atoms: _284  and  _287
REMARK  129  A    between atoms: _287  and  _288
REMARK  130  A    between atoms: _291  and  _293
REMARK  131  A    between atoms: _293  and  _294
REMARK  132  A    between atoms: _297  and  _299
REMARK  133  A    between atoms: _299  and  _300
REMARK  134  A    between atoms: _299  and  _302
REMARK  135  A    between atoms: _302  and  _303
REMARK  136  A    between atoms: _303  and  _304
REMARK  137  A    between atoms: _304  and  _305
REMARK  138  A    between atoms: _305  and  _306
REMARK  139  A    between atoms: _310  and  _312
REMARK  140  A    between atoms: _312  and  _313
REMARK  141  A    between atoms: _312  and  _315
REMARK  142  A    between atoms: _315  and  _316
REMARK  143  A    between atoms: _318  and  _320
REMARK  144  A    between atoms: _320  and  _321
REMARK  145  A    between atoms: _323  and  _325
REMARK  146  A    between atoms: _325  and  _326
REMARK  147  A    between atoms: _325  and  _328
REMARK  148  A    between atoms: _328  and  _329
REMARK  149  A    between atoms: _332  and  _334
REMARK  150  A    between atoms: _334  and  _335
REMARK  151  A    between atoms: _334  and  _337
REMARK  152  A    between atoms: _337  and  _338
REMARK  153  A    between atoms: _344  and  _346
REMARK  154  A    between atoms: _346  and  _347
REMARK  155  A    between atoms: _349  and  _351
REMARK  156  A    between atoms: _351  and  _352
REMARK  157  A    between atoms: _351  and  _354
REMARK  158  A    between atoms: _357  and  _359
REMARK  159  A    between atoms: _359  and  _360
REMARK  160  A    between atoms: _362  and  _364
REMARK  161  A    between atoms: _364  and  _365
REMARK  162  A    between atoms: _364  and  _367
REMARK  163  A    between atoms: _367  and  _368
REMARK  164  A    between atoms: _374  and  _376
REMARK  165  A    between atoms: _376  and  _377
REMARK  166  A    between atoms: _376  and  _379
REMARK  167  A    between atoms: _379  and  _380
REMARK  168  A    between atoms: _385  and  _386
REMARK  169  A    between atoms: _388  and  _390
REMARK  170  A    between atoms: _390  and  _391
REMARK  171  A    between atoms: _390  and  _393
REMARK  172  A    between atoms: _393  and  _394
REMARK  173  A    between atoms: _396  and  _398
REMARK  174  A    between atoms: _398  and  _399
REMARK  175  A    between atoms: _398  and  _401
REMARK  176  A    between atoms: _404  and  _406
REMARK  177  A    between atoms: _406  and  _407
REMARK  178  A    between atoms: _406  and  _409
REMARK  179  A    between atoms: _409  and  _410
REMARK  180  A    between atoms: _413  and  _415
REMARK  181  A    between atoms: _415  and  _416
REMARK  182  A    between atoms: _415  and  _418
REMARK  183  A    between atoms: _421  and  _423
REMARK  184  A    between atoms: _423  and  _424
REMARK  185  A    between atoms: _423  and  _426
REMARK  186  A    between atoms: _426  and  _427
REMARK  187  A    between atoms: _430  and  _432
REMARK  188  A    between atoms: _432  and  _433
REMARK  189  A    between atoms: _432  and  _435
REMARK  190  A    between atoms: _435  and  _436
REMARK  191  A    between atoms: _439  and  _441
REMARK  192  A    between atoms: _441  and  _442
REMARK  193  A    between atoms: _441  and  _444
REMARK  194  A    between atoms: _444  and  _445
REMARK  195  A    between atoms: _445  and  _446
REMARK  196  A    between atoms: _446  and  _447
REMARK  197  A    between atoms: _447  and  _448
REMARK  198  A    between atoms: _452  and  _454
REMARK  199  A    between atoms: _454  and  _455
REMARK  200  A    between atoms: _454  and  _457
REMARK  201  A    between atoms: _457  and  _458
REMARK  202  A    between atoms: _463  and  _465
REMARK  203  A    between atoms: _465  and  _466
REMARK  204  A    between atoms: _465  and  _468
REMARK  205  A    between atoms: _468  and  _469
REMARK  206  A    between atoms: _479  and  _481
REMARK  207  A    between atoms: _481  and  _482
REMARK  208  A    between atoms: _484  and  _486
REMARK  209  A    between atoms: _486  and  _487
REMARK  210  A    between atoms: _486  and  _489
REMARK  211  A    between atoms: _489  and  _490
REMARK  212  A    between atoms: _493  and  _495
REMARK  213  A    between atoms: _495  and  _496
REMARK  214  A    between atoms: _495  and  _498
REMARK  215  A    between atoms: _498  and  _499
REMARK  216  A    between atoms: _499  and  _500
REMARK  217  A    between atoms: _500  and  _501
REMARK  218  A    between atoms: _501  and  _502
REMARK  219  A    between atoms: _506  and  _508
REMARK  220  A    between atoms: _508  and  _509
REMARK  221  A    between atoms: _508  and  _511
REMARK                            x       y       z     vdW  Elec       q    Type
REMARK                         _______ _______ _______ _____ _____    ______ ____
ROOT
ATOM      1  O   HOH     1     -31.430  22.549 -20.201  0.00  0.00    +0.000 OA
ENDROOT
TORSDOF 0
REMARK  Name = ../refined-set-2016/3wha/3wha_pocket.pdb
REMARK  221 active torsions:
REMARK  status: ('A' for Active; 'I' for Inactive)
REMARK    1  A    between atoms: _1  and  _3
REMARK    2  A    between atoms: _3  and  _4
REMARK    3  A    between atoms: _3  and  _6
REMARK    4  A    between atoms: _6  and  _7
REMARK    5  A    between atoms: _10  and  _12
REMARK    6  A    between atoms: _12  and  _13
REMARK    7  A    between atoms: _12  and  _15
REMARK    8  A    between atoms: _15  and  _16
REMARK    9  A    between atoms: _19  and  _21
REMARK   10  A    between atoms: _21  and  _22
REMARK   11  A    between atoms: _21  and  _24
REMARK   12  A    between atoms: _24  and  _25
REMARK   13  A    between atoms: _25  and  _26
REMARK   14  A    between atoms: _29  and  _31
REMARK   15  A    between atoms: _31  and  _32
REMARK   16  A    between atoms: _31  and  _34
REMARK   17  A    between atoms: _34  and  _35
REMARK   18  A    between atoms: _38  and  _40
REMARK   19  A    between atoms: _40  and  _41
REMARK   20  A    between atoms: _40  and  _43
REMARK   21  A    between atoms: _43  and  _44
REMARK   22  A    between atoms: _47  and  _49
REMARK   23  A    between atoms: _49  and  _50
REMARK   24  A    between atoms: _49  and  _52
REMARK   25  A    between atoms: _52  and  _53
REMARK   26  A    between atoms: _55  and  _57
REMARK   27  A    between atoms: _57  and  _58
REMARK   28  A    between atoms: _57  and  _60
REMARK   29  A    between atoms: _60  and  _61
REMARK   30  A    between atoms: _66  and  _68
REMARK   31  A    between atoms: _68  and  _69
REMARK   32  A    between atoms: _68  and  _71
REMARK   33  A    between atoms: _71  and  _72
REMARK   34  A    between atoms: _74  and  _76
REMARK   35  A    between atoms: _76  and  _77
REMARK   36  A    between atoms: _76  and  _79
REMARK   37  A    between atoms: _79  and  _80
REMARK   38  A    between atoms: _82  and  _84
REMARK   39  A    between atoms: _84  and  _85
REMARK   40  A    between atoms: _84  and  _87
REMARK   41  A    between atoms: _87  and  _88
REMARK   42  A    between atoms: _91  and  _93
REMARK   43  A    between atoms: _93  and  _94
REMARK   44  A    between atoms: _97  and  _99
REMARK   45  A    between atoms: _99  and  _100
REMARK   46  A    between atoms: _99  and  _102
REMARK   47  A    between atoms: _102  and  _103
REMARK   48  A    between atoms: _106  and  _108
REMARK   49  A    between atoms: _108  and  _109
REMARK   50  A    between atoms: _108  and  _111
REMARK   51  A    between atoms: _111  and  _112
REMARK   52  A    between atoms: _115  and  _117
REMARK   53  A    between atoms: _117  and  _118
REMARK   54  A    between atoms: _117  and  _120
REMARK   55  A    between atoms: _120  and  _121
REMARK   56  A    between atoms: _121  and  _122
REMARK   57  A    between atoms: _122  and  _123
REMARK   58  A    between atoms: _123  and  _124
REMARK   59  A    between atoms: _128  and  _130
REMARK   60  A    between atoms: _130  and  _131
REMARK   61  A    between atoms: _130  and  _133
REMARK   62  A    between atoms: _133  and  _134
REMARK   63  A    between atoms: _137  and  _139
REMARK   64  A    between atoms: _139  and  _140
REMARK   65  A    between atoms: _139  and  _142
REMARK   66  A    between atoms: _142  and  _143
REMARK   67  A    between atoms: _143  and  _144
REMARK   68  A    between atoms: _147  and  _149
REMARK   69  A    between atoms: _149  and  _150
REMARK   70  A    between atoms: _149  and  _152
REMARK   71  A    between atoms: _152  and  _153
REMARK   72  A    between atoms: _156  and  _158
REMARK   73  A    between atoms: _158  and  _159
REMARK   74  A    between atoms: _158  and  _161
REMARK   75  A    between atoms: _164  and  _166
REMARK   76  A    between atoms: _166  and  _167
REMARK   77  A    between atoms: _166  and  _169
REMARK   78  A    between atoms: _169  and  _170
REMARK   79  A    between atoms: _173  and  _175
REMARK   80  A    between atoms: _175  and  _176
REMARK   81  A    between atoms: _175  and  _178
REMARK   82  A    between atoms: _178  and  _179
REMARK   83  A    between atoms: _182  and  _184
REMARK   84  A    between atoms: _184  and  _185
REMARK   85  A    between atoms: _187  and  _189
REMARK   86  A    between atoms: _189  and  _190
REMARK   87  A    between atoms: _189  and  _192
REMARK   88  A    between atoms: _192  and  _193
REMARK   89  A    between atoms: _196  and  _198
REMARK   90  A    between atoms: _198  and  _199
REMARK   91  A    between atoms: _201  and  _203
REMARK   92  A    between atoms: _203  and  _204
REMARK   93  A    between atoms: _203  and  _206
REMARK   94  A    between atoms: _206  and  _207
REMARK   95  A    between atoms: _207  and  _208
REMARK   96  A    between atoms: _210  and  _212
REMARK   97  A    between atoms: _212  and  _213
REMARK   98  A    between atoms: _212  and  _215
REMARK   99  A    between atoms: _215  and  _216
REMARK  100  A    between atoms: _219  and  _221
REMARK  101  A    between atoms: _221  and  _222
REMARK  102  A    between atoms: _221  and  _224
REMARK  103  A    between atoms: _224  and  _225
REMARK  104  A    between atoms: _228  and  _230
REMARK  105  A    between atoms: _230  and  _231
REMARK  106  A    between atoms: _230  and  _233
REMARK  107  A    between atoms: _233  and  _234
REMARK  108  A    between atoms: _237  and  _239
REMARK  109  A    between atoms: _239  and  _240
REMARK  110  A    between atoms: _239  and  _242
REMARK  111  A    between atoms: _242  and  _243
REMARK  112  A    between atoms: _248  and  _250
REMARK  113  A    between atoms: _250  and  _251
REMARK  114  A    between atoms: _250  and  _253
REMARK  115  A    between atoms: _253  and  _254
REMARK  116  A    between atoms: _259  and  _261
REMARK  117  A    between atoms: _261  and  _262
REMARK  118  A    between atoms: _261  and  _264
REMARK  119  A    between atoms: _264  and  _265
REMARK  120  A    between atoms: _268  and  _270
REMARK  121  A    between atoms: _270  and  _271
REMARK  122  A    between atoms: _273  and  _275
REMARK  123  A    between atoms: _275  and  _276
REMARK  124  A    between atoms: _275  and  _278
REMARK  125  A    between atoms: _278  and  _279
REMARK  126  A    between atoms: _282  and  _284
REMARK  127  A    between atoms: _284  and  _285
REMARK  128  A    between atoms: _284  and  _287
REMARK  129  A    between atoms: _287  and  _288
REMARK  130  A    between atoms: _291  and  _293
REMARK  131  A    between atoms: _293  and  _294
REMARK  132  A    between atoms: _297  and  _299
REMARK  133  A    between atoms: _299  and  _300
REMARK  134  A    between atoms: _299  and  _302
REMARK  135  A    between atoms: _302  and  _303
REMARK  136  A    between atoms: _303  and  _304
REMARK  137  A    between atoms: _304  and  _305
REMARK  138  A    between atoms: _305  and  _306
REMARK  139  A    between atoms: _310  and  _312
REMARK  140  A    between atoms: _312  and  _313
REMARK  141  A    between atoms: _312  and  _315
REMARK  142  A    between atoms: _315  and  _316
REMARK  143  A    between atoms: _318  and  _320
REMARK  144  A    between atoms: _320  and  _321
REMARK  145  A    between atoms: _323  and  _325
REMARK  146  A    between atoms: _325  and  _326
REMARK  147  A    between atoms: _325  and  _328
REMARK  148  A    between atoms: _328  and  _329
REMARK  149  A    between atoms: _332  and  _334
REMARK  150  A    between atoms: _334  and  _335
REMARK  151  A    between atoms: _334  and  _337
REMARK  152  A    between atoms: _337  and  _338
REMARK  153  A    between atoms: _344  and  _346
REMARK  154  A    between atoms: _346  and  _347
REMARK  155  A    between atoms: _349  and  _351
REMARK  156  A    between atoms: _351  and  _352
REMARK  157  A    between atoms: _351  and  _354
REMARK  158  A    between atoms: _357  and  _359
REMARK  159  A    between atoms: _359  and  _360
REMARK  160  A    between atoms: _362  and  _364
REMARK  161  A    between atoms: _364  and  _365
REMARK  162  A    between atoms: _364  and  _367
REMARK  163  A    between atoms: _367  and  _368
REMARK  164  A    between atoms: _374  and  _376
REMARK  165  A    between atoms: _376  and  _377
REMARK  166  A    between atoms: _376  and  _379
REMARK  167  A    between atoms: _379  and  _380
REMARK  168  A    between atoms: _385  and  _386
REMARK  169  A    between atoms: _388  and  _390
REMARK  170  A    between atoms: _390  and  _391
REMARK  171  A    between atoms: _390  and  _393
REMARK  172  A    between atoms: _393  and  _394
REMARK  173  A    between atoms: _396  and  _398
REMARK  174  A    between atoms: _398  and  _399
REMARK  175  A    between atoms: _398  and  _401
REMARK  176  A    between atoms: _404  and  _406
REMARK  177  A    between atoms: _406  and  _407
REMARK  178  A    between atoms: _406  and  _409
REMARK  179  A    between atoms: _409  and  _410
REMARK  180  A    between atoms: _413  and  _415
REMARK  181  A    between atoms: _415  and  _416
REMARK  182  A    between atoms: _415  and  _418
REMARK  183  A    between atoms: _421  and  _423
REMARK  184  A    between atoms: _423  and  _424
REMARK  185  A    between atoms: _423  and  _426
REMARK  186  A    between atoms: _426  and  _427
REMARK  187  A    between atoms: _430  and  _432
REMARK  188  A    between atoms: _432  and  _433
REMARK  189  A    between atoms: _432  and  _435
REMARK  190  A    between atoms: _435  and  _436
REMARK  191  A    between atoms: _439  and  _441
REMARK  192  A    between atoms: _441  and  _442
REMARK  193  A    between atoms: _441  and  _444
REMARK  194  A    between atoms: _444  and  _445
REMARK  195  A    between atoms: _445  and  _446
REMARK  196  A    between atoms: _446  and  _447
REMARK  197  A    between atoms: _447  and  _448
REMARK  198  A    between atoms: _452  and  _454
REMARK  199  A    between atoms: _454  and  _455
REMARK  200  A    between atoms: _454  and  _457
REMARK  201  A    between atoms: _457  and  _458
REMARK  202  A    between atoms: _463  and  _465
REMARK  203  A    between atoms: _465  and  _466
REMARK  204  A    between atoms: _465  and  _468
REMARK  205  A    between atoms: _468  and  _469
REMARK  206  A    between atoms: _479  and  _481
REMARK  207  A    between atoms: _481  and  _482
REMARK  208  A    between atoms: _484  and  _486
REMARK  209  A    between atoms: _486  and  _487
REMARK  210  A    between atoms: _486  and  _489
REMARK  211  A    between atoms: _489  and  _490
REMARK  212  A    between atoms: _493  and  _495
REMARK  213  A    between atoms: _495  and  _496
REMARK  214  A    between atoms: _495  and  _498
REMARK  215  A    between atoms: _498  and  _499
REMARK  216  A    between atoms: _499  and  _500
REMARK  217  A    between atoms: _500  and  _501
REMARK  218  A    between atoms: _501  and  _502
REMARK  219  A    between atoms: _506  and  _508
REMARK  220  A    between atoms: _508  and  _509
REMARK  221  A    between atoms: _508  and  _511
REMARK                            x       y       z     vdW  Elec       q    Type
REMARK                         _______ _______ _______ _____ _____    ______ ____
ROOT
ATOM      1  O   HOH     1     -30.413  19.493 -14.740  0.00  0.00    +0.000 OA
ENDROOT
TORSDOF 0
REMARK  Name = ../refined-set-2016/3wha/3wha_pocket.pdb
REMARK  221 active torsions:
REMARK  status: ('A' for Active; 'I' for Inactive)
REMARK    1  A    between atoms: _1  and  _3
REMARK    2  A    between atoms: _3  and  _4
REMARK    3  A    between atoms: _3  and  _6
REMARK    4  A    between atoms: _6  and  _7
REMARK    5  A    between atoms: _10  and  _12
REMARK    6  A    between atoms: _12  and  _13
REMARK    7  A    between atoms: _12  and  _15
REMARK    8  A    between atoms: _15  and  _16
REMARK    9  A    between atoms: _19  and  _21
REMARK   10  A    between atoms: _21  and  _22
REMARK   11  A    between atoms: _21  and  _24
REMARK   12  A    between atoms: _24  and  _25
REMARK   13  A    between atoms: _25  and  _26
REMARK   14  A    between atoms: _29  and  _31
REMARK   15  A    between atoms: _31  and  _32
REMARK   16  A    between atoms: _31  and  _34
REMARK   17  A    between atoms: _34  and  _35
REMARK   18  A    between atoms: _38  and  _40
REMARK   19  A    between atoms: _40  and  _41
REMARK   20  A    between atoms: _40  and  _43
REMARK   21  A    between atoms: _43  and  _44
REMARK   22  A    between atoms: _47  and  _49
REMARK   23  A    between atoms: _49  and  _50
REMARK   24  A    between atoms: _49  and  _52
REMARK   25  A    between atoms: _52  and  _53
REMARK   26  A    between atoms: _55  and  _57
REMARK   27  A    between atoms: _57  and  _58
REMARK   28  A    between atoms: _57  and  _60
REMARK   29  A    between atoms: _60  and  _61
REMARK   30  A    between atoms: _66  and  _68
REMARK   31  A    between atoms: _68  and  _69
REMARK   32  A    between atoms: _68  and  _71
REMARK   33  A    between atoms: _71  and  _72
REMARK   34  A    between atoms: _74  and  _76
REMARK   35  A    between atoms: _76  and  _77
REMARK   36  A    between atoms: _76  and  _79
REMARK   37  A    between atoms: _79  and  _80
REMARK   38  A    between atoms: _82  and  _84
REMARK   39  A    between atoms: _84  and  _85
REMARK   40  A    between atoms: _84  and  _87
REMARK   41  A    between atoms: _87  and  _88
REMARK   42  A    between atoms: _91  and  _93
REMARK   43  A    between atoms: _93  and  _94
REMARK   44  A    between atoms: _97  and  _99
REMARK   45  A    between atoms: _99  and  _100
REMARK   46  A    between atoms: _99  and  _102
REMARK   47  A    between atoms: _102  and  _103
REMARK   48  A    between atoms: _106  and  _108
REMARK   49  A    between atoms: _108  and  _109
REMARK   50  A    between atoms: _108  and  _111
REMARK   51  A    between atoms: _111  and  _112
REMARK   52  A    between atoms: _115  and  _117
REMARK   53  A    between atoms: _117  and  _118
REMARK   54  A    between atoms: _117  and  _120
REMARK   55  A    between atoms: _120  and  _121
REMARK   56  A    between atoms: _121  and  _122
REMARK   57  A    between atoms: _122  and  _123
REMARK   58  A    between atoms: _123  and  _124
REMARK   59  A    between atoms: _128  and  _130
REMARK   60  A    between atoms: _130  and  _131
REMARK   61  A    between atoms: _130  and  _133
REMARK   62  A    between atoms: _133  and  _134
REMARK   63  A    between atoms: _137  and  _139
REMARK   64  A    between atoms: _139  and  _140
REMARK   65  A    between atoms: _139  and  _142
REMARK   66  A    between atoms: _142  and  _143
REMARK   67  A    between atoms: _143  and  _144
REMARK   68  A    between atoms: _147  and  _149
REMARK   69  A    between atoms: _149  and  _150
REMARK   70  A    between atoms: _149  and  _152
REMARK   71  A    between atoms: _152  and  _153
REMARK   72  A    between atoms: _156  and  _158
REMARK   73  A    between atoms: _158  and  _159
REMARK   74  A    between atoms: _158  and  _161
REMARK   75  A    between atoms: _164  and  _166
REMARK   76  A    between atoms: _166  and  _167
REMARK   77  A    between atoms: _166  and  _169
REMARK   78  A    between atoms: _169  and  _170
REMARK   79  A    between atoms: _173  and  _175
REMARK   80  A    between atoms: _175  and  _176
REMARK   81  A    between atoms: _175  and  _178
REMARK   82  A    between atoms: _178  and  _179
REMARK   83  A    between atoms: _182  and  _184
REMARK   84  A    between atoms: _184  and  _185
REMARK   85  A    between atoms: _187  and  _189
REMARK   86  A    between atoms: _189  and  _190
REMARK   87  A    between atoms: _189  and  _192
REMARK   88  A    between atoms: _192  and  _193
REMARK   89  A    between atoms: _196  and  _198
REMARK   90  A    between atoms: _198  and  _199
REMARK   91  A    between atoms: _201  and  _203
REMARK   92  A    between atoms: _203  and  _204
REMARK   93  A    between atoms: _203  and  _206
REMARK   94  A    between atoms: _206  and  _207
REMARK   95  A    between atoms: _207  and  _208
REMARK   96  A    between atoms: _210  and  _212
REMARK   97  A    between atoms: _212  and  _213
REMARK   98  A    between atoms: _212  and  _215
REMARK   99  A    between atoms: _215  and  _216
REMARK  100  A    between atoms: _219  and  _221
REMARK  101  A    between atoms: _221  and  _222
REMARK  102  A    between atoms: _221  and  _224
REMARK  103  A    between atoms: _224  and  _225
REMARK  104  A    between atoms: _228  and  _230
REMARK  105  A    between atoms: _230  and  _231
REMARK  106  A    between atoms: _230  and  _233
REMARK  107  A    between atoms: _233  and  _234
REMARK  108  A    between atoms: _237  and  _239
REMARK  109  A    between atoms: _239  and  _240
REMARK  110  A    between atoms: _239  and  _242
REMARK  111  A    between atoms: _242  and  _243
REMARK  112  A    between atoms: _248  and  _250
REMARK  113  A    between atoms: _250  and  _251
REMARK  114  A    between atoms: _250  and  _253
REMARK  115  A    between atoms: _253  and  _254
REMARK  116  A    between atoms: _259  and  _261
REMARK  117  A    between atoms: _261  and  _262
REMARK  118  A    between atoms: _261  and  _264
REMARK  119  A    between atoms: _264  and  _265
REMARK  120  A    between atoms: _268  and  _270
REMARK  121  A    between atoms: _270  and  _271
REMARK  122  A    between atoms: _273  and  _275
REMARK  123  A    between atoms: _275  and  _276
REMARK  124  A    between atoms: _275  and  _278
REMARK  125  A    between atoms: _278  and  _279
REMARK  126  A    between atoms: _282  and  _284
REMARK  127  A    between atoms: _284  and  _285
REMARK  128  A    between atoms: _284  and  _287
REMARK  129  A    between atoms: _287  and  _288
REMARK  130  A    between atoms: _291  and  _293
REMARK  131  A    between atoms: _293  and  _294
REMARK  132  A    between atoms: _297  and  _299
REMARK  133  A    between atoms: _299  and  _300
REMARK  134  A    between atoms: _299  and  _302
REMARK  135  A    between atoms: _302  and  _303
REMARK  136  A    between atoms: _303  and  _304
REMARK  137  A    between atoms: _304  and  _305
REMARK  138  A    between atoms: _305  and  _306
REMARK  139  A    between atoms: _310  and  _312
REMARK  140  A    between atoms: _312  and  _313
REMARK  141  A    between atoms: _312  and  _315
REMARK  142  A    between atoms: _315  and  _316
REMARK  143  A    between atoms: _318  and  _320
REMARK  144  A    between atoms: _320  and  _321
REMARK  145  A    between atoms: _323  and  _325
REMARK  146  A    between atoms: _325  and  _326
REMARK  147  A    between atoms: _325  and  _328
REMARK  148  A    between atoms: _328  and  _329
REMARK  149  A    between atoms: _332  and  _334
REMARK  150  A    between atoms: _334  and  _335
REMARK  151  A    between atoms: _334  and  _337
REMARK  152  A    between atoms: _337  and  _338
REMARK  153  A    between atoms: _344  and  _346
REMARK  154  A    between atoms: _346  and  _347
REMARK  155  A    between atoms: _349  and  _351
REMARK  156  A    between atoms: _351  and  _352
REMARK  157  A    between atoms: _351  and  _354
REMARK  158  A    between atoms: _357  and  _359
REMARK  159  A    between atoms: _359  and  _360
REMARK  160  A    between atoms: _362  and  _364
REMARK  161  A    between atoms: _364  and  _365
REMARK  162  A    between atoms: _364  and  _367
REMARK  163  A    between atoms: _367  and  _368
REMARK  164  A    between atoms: _374  and  _376
REMARK  165  A    between atoms: _376  and  _377
REMARK  166  A    between atoms: _376  and  _379
REMARK  167  A    between atoms: _379  and  _380
REMARK  168  A    between atoms: _385  and  _386
REMARK  169  A    between atoms: _388  and  _390
REMARK  170  A    between atoms: _390  and  _391
REMARK  171  A    between atoms: _390  and  _393
REMARK  172  A    between atoms: _393  and  _394
REMARK  173  A    between atoms: _396  and  _398
REMARK  174  A    between atoms: _398  and  _399
REMARK  175  A    between atoms: _398  and  _401
REMARK  176  A    between atoms: _404  and  _406
REMARK  177  A    between atoms: _406  and  _407
REMARK  178  A    between atoms: _406  and  _409
REMARK  179  A    between atoms: _409  and  _410
REMARK  180  A    between atoms: _413  and  _415
REMARK  181  A    between atoms: _415  and  _416
REMARK  182  A    between atoms: _415  and  _418
REMARK  183  A    between atoms: _421  and  _423
REMARK  184  A    between atoms: _423  and  _424
REMARK  185  A    between atoms: _423  and  _426
REMARK  186  A    between atoms: _426  and  _427
REMARK  187  A    between atoms: _430  and  _432
REMARK  188  A    between atoms: _432  and  _433
REMARK  189  A    between atoms: _432  and  _435
REMARK  190  A    between atoms: _435  and  _436
REMARK  191  A    between atoms: _439  and  _441
REMARK  192  A    between atoms: _441  and  _442
REMARK  193  A    between atoms: _441  and  _444
REMARK  194  A    between atoms: _444  and  _445
REMARK  195  A    between atoms: _445  and  _446
REMARK  196  A    between atoms: _446  and  _447
REMARK  197  A    between atoms: _447  and  _448
REMARK  198  A    between atoms: _452  and  _454
REMARK  199  A    between atoms: _454  and  _455
REMARK  200  A    between atoms: _454  and  _457
REMARK  201  A    between atoms: _457  and  _458
REMARK  202  A    between atoms: _463  and  _465
REMARK  203  A    between atoms: _465  and  _466
REMARK  204  A    between atoms: _465  and  _468
REMARK  205  A    between atoms: _468  and  _469
REMARK  206  A    between atoms: _479  and  _481
REMARK  207  A    between atoms: _481  and  _482
REMARK  208  A    between atoms: _484  and  _486
REMARK  209  A    between atoms: _486  and  _487
REMARK  210  A    between atoms: _486  and  _489
REMARK  211  A    between atoms: _489  and  _490
REMARK  212  A    between atoms: _493  and  _495
REMARK  213  A    between atoms: _495  and  _496
REMARK  214  A    between atoms: _495  and  _498
REMARK  215  A    between atoms: _498  and  _499
REMARK  216  A    between atoms: _499  and  _500
REMARK  217  A    between atoms: _500  and  _501
REMARK  218  A    between atoms: _501  and  _502
REMARK  219  A    between atoms: _506  and  _508
REMARK  220  A    between atoms: _508  and  _509
REMARK  221  A    between atoms: _508  and  _511
REMARK                            x       y       z     vdW  Elec       q    Type
REMARK                         _______ _______ _______ _____ _____    ______ ____
ROOT
ATOM      1  O   HOH     1     -27.723  25.888 -15.253  0.00  0.00    +0.000 OA
ENDROOT
TORSDOF 0
REMARK  Name = ../refined-set-2016/3wha/3wha_pocket.pdb
REMARK  221 active torsions:
REMARK  status: ('A' for Active; 'I' for Inactive)
REMARK    1  A    between atoms: _1  and  _3
REMARK    2  A    between atoms: _3  and  _4
REMARK    3  A    between atoms: _3  and  _6
REMARK    4  A    between atoms: _6  and  _7
REMARK    5  A    between atoms: _10  and  _12
REMARK    6  A    between atoms: _12  and  _13
REMARK    7  A    between atoms: _12  and  _15
REMARK    8  A    between atoms: _15  and  _16
REMARK    9  A    between atoms: _19  and  _21
REMARK   10  A    between atoms: _21  and  _22
REMARK   11  A    between atoms: _21  and  _24
REMARK   12  A    between atoms: _24  and  _25
REMARK   13  A    between atoms: _25  and  _26
REMARK   14  A    between atoms: _29  and  _31
REMARK   15  A    between atoms: _31  and  _32
REMARK   16  A    between atoms: _31  and  _34
REMARK   17  A    between atoms: _34  and  _35
REMARK   18  A    between atoms: _38  and  _40
REMARK   19  A    between atoms: _40  and  _41
REMARK   20  A    between atoms: _40  and  _43
REMARK   21  A    between atoms: _43  and  _44
REMARK   22  A    between atoms: _47  and  _49
REMARK   23  A    between atoms: _49  and  _50
REMARK   24  A    between atoms: _49  and  _52
REMARK   25  A    between atoms: _52  and  _53
REMARK   26  A    between atoms: _55  and  _57
REMARK   27  A    between atoms: _57  and  _58
REMARK   28  A    between atoms: _57  and  _60
REMARK   29  A    between atoms: _60  and  _61
REMARK   30  A    between atoms: _66  and  _68
REMARK   31  A    between atoms: _68  and  _69
REMARK   32  A    between atoms: _68  and  _71
REMARK   33  A    between atoms: _71  and  _72
REMARK   34  A    between atoms: _74  and  _76
REMARK   35  A    between atoms: _76  and  _77
REMARK   36  A    between atoms: _76  and  _79
REMARK   37  A    between atoms: _79  and  _80
REMARK   38  A    between atoms: _82  and  _84
REMARK   39  A    between atoms: _84  and  _85
REMARK   40  A    between atoms: _84  and  _87
REMARK   41  A    between atoms: _87  and  _88
REMARK   42  A    between atoms: _91  and  _93
REMARK   43  A    between atoms: _93  and  _94
REMARK   44  A    between atoms: _97  and  _99
REMARK   45  A    between atoms: _99  and  _100
REMARK   46  A    between atoms: _99  and  _102
REMARK   47  A    between atoms: _102  and  _103
REMARK   48  A    between atoms: _106  and  _108
REMARK   49  A    between atoms: _108  and  _109
REMARK   50  A    between atoms: _108  and  _111
REMARK   51  A    between atoms: _111  and  _112
REMARK   52  A    between atoms: _115  and  _117
REMARK   53  A    between atoms: _117  and  _118
REMARK   54  A    between atoms: _117  and  _120
REMARK   55  A    between atoms: _120  and  _121
REMARK   56  A    between atoms: _121  and  _122
REMARK   57  A    between atoms: _122  and  _123
REMARK   58  A    between atoms: _123  and  _124
REMARK   59  A    between atoms: _128  and  _130
REMARK   60  A    between atoms: _130  and  _131
REMARK   61  A    between atoms: _130  and  _133
REMARK   62  A    between atoms: _133  and  _134
REMARK   63  A    between atoms: _137  and  _139
REMARK   64  A    between atoms: _139  and  _140
REMARK   65  A    between atoms: _139  and  _142
REMARK   66  A    between atoms: _142  and  _143
REMARK   67  A    between atoms: _143  and  _144
REMARK   68  A    between atoms: _147  and  _149
REMARK   69  A    between atoms: _149  and  _150
REMARK   70  A    between atoms: _149  and  _152
REMARK   71  A    between atoms: _152  and  _153
REMARK   72  A    between atoms: _156  and  _158
REMARK   73  A    between atoms: _158  and  _159
REMARK   74  A    between atoms: _158  and  _161
REMARK   75  A    between atoms: _164  and  _166
REMARK   76  A    between atoms: _166  and  _167
REMARK   77  A    between atoms: _166  and  _169
REMARK   78  A    between atoms: _169  and  _170
REMARK   79  A    between atoms: _173  and  _175
REMARK   80  A    between atoms: _175  and  _176
REMARK   81  A    between atoms: _175  and  _178
REMARK   82  A    between atoms: _178  and  _179
REMARK   83  A    between atoms: _182  and  _184
REMARK   84  A    between atoms: _184  and  _185
REMARK   85  A    between atoms: _187  and  _189
REMARK   86  A    between atoms: _189  and  _190
REMARK   87  A    between atoms: _189  and  _192
REMARK   88  A    between atoms: _192  and  _193
REMARK   89  A    between atoms: _196  and  _198
REMARK   90  A    between atoms: _198  and  _199
REMARK   91  A    between atoms: _201  and  _203
REMARK   92  A    between atoms: _203  and  _204
REMARK   93  A    between atoms: _203  and  _206
REMARK   94  A    between atoms: _206  and  _207
REMARK   95  A    between atoms: _207  and  _208
REMARK   96  A    between atoms: _210  and  _212
REMARK   97  A    between atoms: _212  and  _213
REMARK   98  A    between atoms: _212  and  _215
REMARK   99  A    between atoms: _215  and  _216
REMARK  100  A    between atoms: _219  and  _221
REMARK  101  A    between atoms: _221  and  _222
REMARK  102  A    between atoms: _221  and  _224
REMARK  103  A    between atoms: _224  and  _225
REMARK  104  A    between atoms: _228  and  _230
REMARK  105  A    between atoms: _230  and  _231
REMARK  106  A    between atoms: _230  and  _233
REMARK  107  A    between atoms: _233  and  _234
REMARK  108  A    between atoms: _237  and  _239
REMARK  109  A    between atoms: _239  and  _240
REMARK  110  A    between atoms: _239  and  _242
REMARK  111  A    between atoms: _242  and  _243
REMARK  112  A    between atoms: _248  and  _250
REMARK  113  A    between atoms: _250  and  _251
REMARK  114  A    between atoms: _250  and  _253
REMARK  115  A    between atoms: _253  and  _254
REMARK  116  A    between atoms: _259  and  _261
REMARK  117  A    between atoms: _261  and  _262
REMARK  118  A    between atoms: _261  and  _264
REMARK  119  A    between atoms: _264  and  _265
REMARK  120  A    between atoms: _268  and  _270
REMARK  121  A    between atoms: _270  and  _271
REMARK  122  A    between atoms: _273  and  _275
REMARK  123  A    between atoms: _275  and  _276
REMARK  124  A    between atoms: _275  and  _278
REMARK  125  A    between atoms: _278  and  _279
REMARK  126  A    between atoms: _282  and  _284
REMARK  127  A    between atoms: _284  and  _285
REMARK  128  A    between atoms: _284  and  _287
REMARK  129  A    between atoms: _287  and  _288
REMARK  130  A    between atoms: _291  and  _293
REMARK  131  A    between atoms: _293  and  _294
REMARK  132  A    between atoms: _297  and  _299
REMARK  133  A    between atoms: _299  and  _300
REMARK  134  A    between atoms: _299  and  _302
REMARK  135  A    between atoms: _302  and  _303
REMARK  136  A    between atoms: _303  and  _304
REMARK  137  A    between atoms: _304  and  _305
REMARK  138  A    between atoms: _305  and  _306
REMARK  139  A    between atoms: _310  and  _312
REMARK  140  A    between atoms: _312  and  _313
REMARK  141  A    between atoms: _312  and  _315
REMARK  142  A    between atoms: _315  and  _316
REMARK  143  A    between atoms: _318  and  _320
REMARK  144  A    between atoms: _320  and  _321
REMARK  145  A    between atoms: _323  and  _325
REMARK  146  A    between atoms: _325  and  _326
REMARK  147  A    between atoms: _325  and  _328
REMARK  148  A    between atoms: _328  and  _329
REMARK  149  A    between atoms: _332  and  _334
REMARK  150  A    between atoms: _334  and  _335
REMARK  151  A    between atoms: _334  and  _337
REMARK  152  A    between atoms: _337  and  _338
REMARK  153  A    between atoms: _344  and  _346
REMARK  154  A    between atoms: _346  and  _347
REMARK  155  A    between atoms: _349  and  _351
REMARK  156  A    between atoms: _351  and  _352
REMARK  157  A    between atoms: _351  and  _354
REMARK  158  A    between atoms: _357  and  _359
REMARK  159  A    between atoms: _359  and  _360
REMARK  160  A    between atoms: _362  and  _364
REMARK  161  A    between atoms: _364  and  _365
REMARK  162  A    between atoms: _364  and  _367
REMARK  163  A    between atoms: _367  and  _368
REMARK  164  A    between atoms: _374  and  _376
REMARK  165  A    between atoms: _376  and  _377
REMARK  166  A    between atoms: _376  and  _379
REMARK  167  A    between atoms: _379  and  _380
REMARK  168  A    between atoms: _385  and  _386
REMARK  169  A    between atoms: _388  and  _390
REMARK  170  A    between atoms: _390  and  _391
REMARK  171  A    between atoms: _390  and  _393
REMARK  172  A    between atoms: _393  and  _394
REMARK  173  A    between atoms: _396  and  _398
REMARK  174  A    between atoms: _398  and  _399
REMARK  175  A    between atoms: _398  and  _401
REMARK  176  A    between atoms: _404  and  _406
REMARK  177  A    between atoms: _406  and  _407
REMARK  178  A    between atoms: _406  and  _409
REMARK  179  A    between atoms: _409  and  _410
REMARK  180  A    between atoms: _413  and  _415
REMARK  181  A    between atoms: _415  and  _416
REMARK  182  A    between atoms: _415  and  _418
REMARK  183  A    between atoms: _421  and  _423
REMARK  184  A    between atoms: _423  and  _424
REMARK  185  A    between atoms: _423  and  _426
REMARK  186  A    between atoms: _426  and  _427
REMARK  187  A    between atoms: _430  and  _432
REMARK  188  A    between atoms: _432  and  _433
REMARK  189  A    between atoms: _432  and  _435
REMARK  190  A    between atoms: _435  and  _436
REMARK  191  A    between atoms: _439  and  _441
REMARK  192  A    between atoms: _441  and  _442
REMARK  193  A    between atoms: _441  and  _444
REMARK  194  A    between atoms: _444  and  _445
REMARK  195  A    between atoms: _445  and  _446
REMARK  196  A    between atoms: _446  and  _447
REMARK  197  A    between atoms: _447  and  _448
REMARK  198  A    between atoms: _452  and  _454
REMARK  199  A    between atoms: _454  and  _455
REMARK  200  A    between atoms: _454  and  _457
REMARK  201  A    between atoms: _457  and  _458
REMARK  202  A    between atoms: _463  and  _465
REMARK  203  A    between atoms: _465  and  _466
REMARK  204  A    between atoms: _465  and  _468
REMARK  205  A    between atoms: _468  and  _469
REMARK  206  A    between atoms: _479  and  _481
REMARK  207  A    between atoms: _481  and  _482
REMARK  208  A    between atoms: _484  and  _486
REMARK  209  A    between atoms: _486  and  _487
REMARK  210  A    between atoms: _486  and  _489
REMARK  211  A    between atoms: _489  and  _490
REMARK  212  A    between atoms: _493  and  _495
REMARK  213  A    between atoms: _495  and  _496
REMARK  214  A    between atoms: _495  and  _498
REMARK  215  A    between atoms: _498  and  _499
REMARK  216  A    between atoms: _499  and  _500
REMARK  217  A    between atoms: _500  and  _501
REMARK  218  A    between atoms: _501  and  _502
REMARK  219  A    between atoms: _506  and  _508
REMARK  220  A    between atoms: _508  and  _509
REMARK  221  A    between atoms: _508  and  _511
REMARK                            x       y       z     vdW  Elec       q    Type
REMARK                         _______ _______ _______ _____ _____    ______ ____
ROOT
ATOM      1  O   HOH     1     -29.010  28.762 -24.582  0.00  0.00    +0.000 OA
ENDROOT
TORSDOF 0
REMARK  Name = ../refined-set-2016/3wha/3wha_pocket.pdb
REMARK  221 active torsions:
REMARK  status: ('A' for Active; 'I' for Inactive)
REMARK    1  A    between atoms: _1  and  _3
REMARK    2  A    between atoms: _3  and  _4
REMARK    3  A    between atoms: _3  and  _6
REMARK    4  A    between atoms: _6  and  _7
REMARK    5  A    between atoms: _10  and  _12
REMARK    6  A    between atoms: _12  and  _13
REMARK    7  A    between atoms: _12  and  _15
REMARK    8  A    between atoms: _15  and  _16
REMARK    9  A    between atoms: _19  and  _21
REMARK   10  A    between atoms: _21  and  _22
REMARK   11  A    between atoms: _21  and  _24
REMARK   12  A    between atoms: _24  and  _25
REMARK   13  A    between atoms: _25  and  _26
REMARK   14  A    between atoms: _29  and  _31
REMARK   15  A    between atoms: _31  and  _32
REMARK   16  A    between atoms: _31  and  _34
REMARK   17  A    between atoms: _34  and  _35
REMARK   18  A    between atoms: _38  and  _40
REMARK   19  A    between atoms: _40  and  _41
REMARK   20  A    between atoms: _40  and  _43
REMARK   21  A    between atoms: _43  and  _44
REMARK   22  A    between atoms: _47  and  _49
REMARK   23  A    between atoms: _49  and  _50
REMARK   24  A    between atoms: _49  and  _52
REMARK   25  A    between atoms: _52  and  _53
REMARK   26  A    between atoms: _55  and  _57
REMARK   27  A    between atoms: _57  and  _58
REMARK   28  A    between atoms: _57  and  _60
REMARK   29  A    between atoms: _60  and  _61
REMARK   30  A    between atoms: _66  and  _68
REMARK   31  A    between atoms: _68  and  _69
REMARK   32  A    between atoms: _68  and  _71
REMARK   33  A    between atoms: _71  and  _72
REMARK   34  A    between atoms: _74  and  _76
REMARK   35  A    between atoms: _76  and  _77
REMARK   36  A    between atoms: _76  and  _79
REMARK   37  A    between atoms: _79  and  _80
REMARK   38  A    between atoms: _82  and  _84
REMARK   39  A    between atoms: _84  and  _85
REMARK   40  A    between atoms: _84  and  _87
REMARK   41  A    between atoms: _87  and  _88
REMARK   42  A    between atoms: _91  and  _93
REMARK   43  A    between atoms: _93  and  _94
REMARK   44  A    between atoms: _97  and  _99
REMARK   45  A    between atoms: _99  and  _100
REMARK   46  A    between atoms: _99  and  _102
REMARK   47  A    between atoms: _102  and  _103
REMARK   48  A    between atoms: _106  and  _108
REMARK   49  A    between atoms: _108  and  _109
REMARK   50  A    between atoms: _108  and  _111
REMARK   51  A    between atoms: _111  and  _112
REMARK   52  A    between atoms: _115  and  _117
REMARK   53  A    between atoms: _117  and  _118
REMARK   54  A    between atoms: _117  and  _120
REMARK   55  A    between atoms: _120  and  _121
REMARK   56  A    between atoms: _121  and  _122
REMARK   57  A    between atoms: _122  and  _123
REMARK   58  A    between atoms: _123  and  _124
REMARK   59  A    between atoms: _128  and  _130
REMARK   60  A    between atoms: _130  and  _131
REMARK   61  A    between atoms: _130  and  _133
REMARK   62  A    between atoms: _133  and  _134
REMARK   63  A    between atoms: _137  and  _139
REMARK   64  A    between atoms: _139  and  _140
REMARK   65  A    between atoms: _139  and  _142
REMARK   66  A    between atoms: _142  and  _143
REMARK   67  A    between atoms: _143  and  _144
REMARK   68  A    between atoms: _147  and  _149
REMARK   69  A    between atoms: _149  and  _150
REMARK   70  A    between atoms: _149  and  _152
REMARK   71  A    between atoms: _152  and  _153
REMARK   72  A    between atoms: _156  and  _158
REMARK   73  A    between atoms: _158  and  _159
REMARK   74  A    between atoms: _158  and  _161
REMARK   75  A    between atoms: _164  and  _166
REMARK   76  A    between atoms: _166  and  _167
REMARK   77  A    between atoms: _166  and  _169
REMARK   78  A    between atoms: _169  and  _170
REMARK   79  A    between atoms: _173  and  _175
REMARK   80  A    between atoms: _175  and  _176
REMARK   81  A    between atoms: _175  and  _178
REMARK   82  A    between atoms: _178  and  _179
REMARK   83  A    between atoms: _182  and  _184
REMARK   84  A    between atoms: _184  and  _185
REMARK   85  A    between atoms: _187  and  _189
REMARK   86  A    between atoms: _189  and  _190
REMARK   87  A    between atoms: _189  and  _192
REMARK   88  A    between atoms: _192  and  _193
REMARK   89  A    between atoms: _196  and  _198
REMARK   90  A    between atoms: _198  and  _199
REMARK   91  A    between atoms: _201  and  _203
REMARK   92  A    between atoms: _203  and  _204
REMARK   93  A    between atoms: _203  and  _206
REMARK   94  A    between atoms: _206  and  _207
REMARK   95  A    between atoms: _207  and  _208
REMARK   96  A    between atoms: _210  and  _212
REMARK   97  A    between atoms: _212  and  _213
REMARK   98  A    between atoms: _212  and  _215
REMARK   99  A    between atoms: _215  and  _216
REMARK  100  A    between atoms: _219  and  _221
REMARK  101  A    between atoms: _221  and  _222
REMARK  102  A    between atoms: _221  and  _224
REMARK  103  A    between atoms: _224  and  _225
REMARK  104  A    between atoms: _228  and  _230
REMARK  105  A    between atoms: _230  and  _231
REMARK  106  A    between atoms: _230  and  _233
REMARK  107  A    between atoms: _233  and  _234
REMARK  108  A    between atoms: _237  and  _239
REMARK  109  A    between atoms: _239  and  _240
REMARK  110  A    between atoms: _239  and  _242
REMARK  111  A    between atoms: _242  and  _243
REMARK  112  A    between atoms: _248  and  _250
REMARK  113  A    between atoms: _250  and  _251
REMARK  114  A    between atoms: _250  and  _253
REMARK  115  A    between atoms: _253  and  _254
REMARK  116  A    between atoms: _259  and  _261
REMARK  117  A    between atoms: _261  and  _262
REMARK  118  A    between atoms: _261  and  _264
REMARK  119  A    between atoms: _264  and  _265
REMARK  120  A    between atoms: _268  and  _270
REMARK  121  A    between atoms: _270  and  _271
REMARK  122  A    between atoms: _273  and  _275
REMARK  123  A    between atoms: _275  and  _276
REMARK  124  A    between atoms: _275  and  _278
REMARK  125  A    between atoms: _278  and  _279
REMARK  126  A    between atoms: _282  and  _284
REMARK  127  A    between atoms: _284  and  _285
REMARK  128  A    between atoms: _284  and  _287
REMARK  129  A    between atoms: _287  and  _288
REMARK  130  A    between atoms: _291  and  _293
REMARK  131  A    between atoms: _293  and  _294
REMARK  132  A    between atoms: _297  and  _299
REMARK  133  A    between atoms: _299  and  _300
REMARK  134  A    between atoms: _299  and  _302
REMARK  135  A    between atoms: _302  and  _303
REMARK  136  A    between atoms: _303  and  _304
REMARK  137  A    between atoms: _304  and  _305
REMARK  138  A    between atoms: _305  and  _306
REMARK  139  A    between atoms: _310  and  _312
REMARK  140  A    between atoms: _312  and  _313
REMARK  141  A    between atoms: _312  and  _315
REMARK  142  A    between atoms: _315  and  _316
REMARK  143  A    between atoms: _318  and  _320
REMARK  144  A    between atoms: _320  and  _321
REMARK  145  A    between atoms: _323  and  _325
REMARK  146  A    between atoms: _325  and  _326
REMARK  147  A    between atoms: _325  and  _328
REMARK  148  A    between atoms: _328  and  _329
REMARK  149  A    between atoms: _332  and  _334
REMARK  150  A    between atoms: _334  and  _335
REMARK  151  A    between atoms: _334  and  _337
REMARK  152  A    between atoms: _337  and  _338
REMARK  153  A    between atoms: _344  and  _346
REMARK  154  A    between atoms: _346  and  _347
REMARK  155  A    between atoms: _349  and  _351
REMARK  156  A    between atoms: _351  and  _352
REMARK  157  A    between atoms: _351  and  _354
REMARK  158  A    between atoms: _357  and  _359
REMARK  159  A    between atoms: _359  and  _360
REMARK  160  A    between atoms: _362  and  _364
REMARK  161  A    between atoms: _364  and  _365
REMARK  162  A    between atoms: _364  and  _367
REMARK  163  A    between atoms: _367  and  _368
REMARK  164  A    between atoms: _374  and  _376
REMARK  165  A    between atoms: _376  and  _377
REMARK  166  A    between atoms: _376  and  _379
REMARK  167  A    between atoms: _379  and  _380
REMARK  168  A    between atoms: _385  and  _386
REMARK  169  A    between atoms: _388  and  _390
REMARK  170  A    between atoms: _390  and  _391
REMARK  171  A    between atoms: _390  and  _393
REMARK  172  A    between atoms: _393  and  _394
REMARK  173  A    between atoms: _396  and  _398
REMARK  174  A    between atoms: _398  and  _399
REMARK  175  A    between atoms: _398  and  _401
REMARK  176  A    between atoms: _404  and  _406
REMARK  177  A    between atoms: _406  and  _407
REMARK  178  A    between atoms: _406  and  _409
REMARK  179  A    between atoms: _409  and  _410
REMARK  180  A    between atoms: _413  and  _415
REMARK  181  A    between atoms: _415  and  _416
REMARK  182  A    between atoms: _415  and  _418
REMARK  183  A    between atoms: _421  and  _423
REMARK  184  A    between atoms: _423  and  _424
REMARK  185  A    between atoms: _423  and  _426
REMARK  186  A    between atoms: _426  and  _427
REMARK  187  A    between atoms: _430  and  _432
REMARK  188  A    between atoms: _432  and  _433
REMARK  189  A    between atoms: _432  and  _435
REMARK  190  A    between atoms: _435  and  _436
REMARK  191  A    between atoms: _439  and  _441
REMARK  192  A    between atoms: _441  and  _442
REMARK  193  A    between atoms: _441  and  _444
REMARK  194  A    between atoms: _444  and  _445
REMARK  195  A    between atoms: _445  and  _446
REMARK  196  A    between atoms: _446  and  _447
REMARK  197  A    between atoms: _447  and  _448
REMARK  198  A    between atoms: _452  and  _454
REMARK  199  A    between atoms: _454  and  _455
REMARK  200  A    between atoms: _454  and  _457
REMARK  201  A    between atoms: _457  and  _458
REMARK  202  A    between atoms: _463  and  _465
REMARK  203  A    between atoms: _465  and  _466
REMARK  204  A    between atoms: _465  and  _468
REMARK  205  A    between atoms: _468  and  _469
REMARK  206  A    between atoms: _479  and  _481
REMARK  207  A    between atoms: _481  and  _482
REMARK  208  A    between atoms: _484  and  _486
REMARK  209  A    between atoms: _486  and  _487
REMARK  210  A    between atoms: _486  and  _489
REMARK  211  A    between atoms: _489  and  _490
REMARK  212  A    between atoms: _493  and  _495
REMARK  213  A    between atoms: _495  and  _496
REMARK  214  A    between atoms: _495  and  _498
REMARK  215  A    between atoms: _498  and  _499
REMARK  216  A    between atoms: _499  and  _500
REMARK  217  A    between atoms: _500  and  _501
REMARK  218  A    between atoms: _501  and  _502
REMARK  219  A    between atoms: _506  and  _508
REMARK  220  A    between atoms: _508  and  _509
REMARK  221  A    between atoms: _508  and  _511
REMARK                            x       y       z     vdW  Elec       q    Type
REMARK                         _______ _______ _______ _____ _____    ______ ____
ROOT
ATOM      1  O   HOH     1     -29.494  29.861 -22.128  0.00  0.00    +0.000 OA
ENDROOT
TORSDOF 0
REMARK  Name = ../refined-set-2016/3wha/3wha_pocket.pdb
REMARK  221 active torsions:
REMARK  status: ('A' for Active; 'I' for Inactive)
REMARK    1  A    between atoms: _1  and  _3
REMARK    2  A    between atoms: _3  and  _4
REMARK    3  A    between atoms: _3  and  _6
REMARK    4  A    between atoms: _6  and  _7
REMARK    5  A    between atoms: _10  and  _12
REMARK    6  A    between atoms: _12  and  _13
REMARK    7  A    between atoms: _12  and  _15
REMARK    8  A    between atoms: _15  and  _16
REMARK    9  A    between atoms: _19  and  _21
REMARK   10  A    between atoms: _21  and  _22
REMARK   11  A    between atoms: _21  and  _24
REMARK   12  A    between atoms: _24  and  _25
REMARK   13  A    between atoms: _25  and  _26
REMARK   14  A    between atoms: _29  and  _31
REMARK   15  A    between atoms: _31  and  _32
REMARK   16  A    between atoms: _31  and  _34
REMARK   17  A    between atoms: _34  and  _35
REMARK   18  A    between atoms: _38  and  _40
REMARK   19  A    between atoms: _40  and  _41
REMARK   20  A    between atoms: _40  and  _43
REMARK   21  A    between atoms: _43  and  _44
REMARK   22  A    between atoms: _47  and  _49
REMARK   23  A    between atoms: _49  and  _50
REMARK   24  A    between atoms: _49  and  _52
REMARK   25  A    between atoms: _52  and  _53
REMARK   26  A    between atoms: _55  and  _57
REMARK   27  A    between atoms: _57  and  _58
REMARK   28  A    between atoms: _57  and  _60
REMARK   29  A    between atoms: _60  and  _61
REMARK   30  A    between atoms: _66  and  _68
REMARK   31  A    between atoms: _68  and  _69
REMARK   32  A    between atoms: _68  and  _71
REMARK   33  A    between atoms: _71  and  _72
REMARK   34  A    between atoms: _74  and  _76
REMARK   35  A    between atoms: _76  and  _77
REMARK   36  A    between atoms: _76  and  _79
REMARK   37  A    between atoms: _79  and  _80
REMARK   38  A    between atoms: _82  and  _84
REMARK   39  A    between atoms: _84  and  _85
REMARK   40  A    between atoms: _84  and  _87
REMARK   41  A    between atoms: _87  and  _88
REMARK   42  A    between atoms: _91  and  _93
REMARK   43  A    between atoms: _93  and  _94
REMARK   44  A    between atoms: _97  and  _99
REMARK   45  A    between atoms: _99  and  _100
REMARK   46  A    between atoms: _99  and  _102
REMARK   47  A    between atoms: _102  and  _103
REMARK   48  A    between atoms: _106  and  _108
REMARK   49  A    between atoms: _108  and  _109
REMARK   50  A    between atoms: _108  and  _111
REMARK   51  A    between atoms: _111  and  _112
REMARK   52  A    between atoms: _115  and  _117
REMARK   53  A    between atoms: _117  and  _118
REMARK   54  A    between atoms: _117  and  _120
REMARK   55  A    between atoms: _120  and  _121
REMARK   56  A    between atoms: _121  and  _122
REMARK   57  A    between atoms: _122  and  _123
REMARK   58  A    between atoms: _123  and  _124
REMARK   59  A    between atoms: _128  and  _130
REMARK   60  A    between atoms: _130  and  _131
REMARK   61  A    between atoms: _130  and  _133
REMARK   62  A    between atoms: _133  and  _134
REMARK   63  A    between atoms: _137  and  _139
REMARK   64  A    between atoms: _139  and  _140
REMARK   65  A    between atoms: _139  and  _142
REMARK   66  A    between atoms: _142  and  _143
REMARK   67  A    between atoms: _143  and  _144
REMARK   68  A    between atoms: _147  and  _149
REMARK   69  A    between atoms: _149  and  _150
REMARK   70  A    between atoms: _149  and  _152
REMARK   71  A    between atoms: _152  and  _153
REMARK   72  A    between atoms: _156  and  _158
REMARK   73  A    between atoms: _158  and  _159
REMARK   74  A    between atoms: _158  and  _161
REMARK   75  A    between atoms: _164  and  _166
REMARK   76  A    between atoms: _166  and  _167
REMARK   77  A    between atoms: _166  and  _169
REMARK   78  A    between atoms: _169  and  _170
REMARK   79  A    between atoms: _173  and  _175
REMARK   80  A    between atoms: _175  and  _176
REMARK   81  A    between atoms: _175  and  _178
REMARK   82  A    between atoms: _178  and  _179
REMARK   83  A    between atoms: _182  and  _184
REMARK   84  A    between atoms: _184  and  _185
REMARK   85  A    between atoms: _187  and  _189
REMARK   86  A    between atoms: _189  and  _190
REMARK   87  A    between atoms: _189  and  _192
REMARK   88  A    between atoms: _192  and  _193
REMARK   89  A    between atoms: _196  and  _198
REMARK   90  A    between atoms: _198  and  _199
REMARK   91  A    between atoms: _201  and  _203
REMARK   92  A    between atoms: _203  and  _204
REMARK   93  A    between atoms: _203  and  _206
REMARK   94  A    between atoms: _206  and  _207
REMARK   95  A    between atoms: _207  and  _208
REMARK   96  A    between atoms: _210  and  _212
REMARK   97  A    between atoms: _212  and  _213
REMARK   98  A    between atoms: _212  and  _215
REMARK   99  A    between atoms: _215  and  _216
REMARK  100  A    between atoms: _219  and  _221
REMARK  101  A    between atoms: _221  and  _222
REMARK  102  A    between atoms: _221  and  _224
REMARK  103  A    between atoms: _224  and  _225
REMARK  104  A    between atoms: _228  and  _230
REMARK  105  A    between atoms: _230  and  _231
REMARK  106  A    between atoms: _230  and  _233
REMARK  107  A    between atoms: _233  and  _234
REMARK  108  A    between atoms: _237  and  _239
REMARK  109  A    between atoms: _239  and  _240
REMARK  110  A    between atoms: _239  and  _242
REMARK  111  A    between atoms: _242  and  _243
REMARK  112  A    between atoms: _248  and  _250
REMARK  113  A    between atoms: _250  and  _251
REMARK  114  A    between atoms: _250  and  _253
REMARK  115  A    between atoms: _253  and  _254
REMARK  116  A    between atoms: _259  and  _261
REMARK  117  A    between atoms: _261  and  _262
REMARK  118  A    between atoms: _261  and  _264
REMARK  119  A    between atoms: _264  and  _265
REMARK  120  A    between atoms: _268  and  _270
REMARK  121  A    between atoms: _270  and  _271
REMARK  122  A    between atoms: _273  and  _275
REMARK  123  A    between atoms: _275  and  _276
REMARK  124  A    between atoms: _275  and  _278
REMARK  125  A    between atoms: _278  and  _279
REMARK  126  A    between atoms: _282  and  _284
REMARK  127  A    between atoms: _284  and  _285
REMARK  128  A    between atoms: _284  and  _287
REMARK  129  A    between atoms: _287  and  _288
REMARK  130  A    between atoms: _291  and  _293
REMARK  131  A    between atoms: _293  and  _294
REMARK  132  A    between atoms: _297  and  _299
REMARK  133  A    between atoms: _299  and  _300
REMARK  134  A    between atoms: _299  and  _302
REMARK  135  A    between atoms: _302  and  _303
REMARK  136  A    between atoms: _303  and  _304
REMARK  137  A    between atoms: _304  and  _305
REMARK  138  A    between atoms: _305  and  _306
REMARK  139  A    between atoms: _310  and  _312
REMARK  140  A    between atoms: _312  and  _313
REMARK  141  A    between atoms: _312  and  _315
REMARK  142  A    between atoms: _315  and  _316
REMARK  143  A    between atoms: _318  and  _320
REMARK  144  A    between atoms: _320  and  _321
REMARK  145  A    between atoms: _323  and  _325
REMARK  146  A    between atoms: _325  and  _326
REMARK  147  A    between atoms: _325  and  _328
REMARK  148  A    between atoms: _328  and  _329
REMARK  149  A    between atoms: _332  and  _334
REMARK  150  A    between atoms: _334  and  _335
REMARK  151  A    between atoms: _334  and  _337
REMARK  152  A    between atoms: _337  and  _338
REMARK  153  A    between atoms: _344  and  _346
REMARK  154  A    between atoms: _346  and  _347
REMARK  155  A    between atoms: _349  and  _351
REMARK  156  A    between atoms: _351  and  _352
REMARK  157  A    between atoms: _351  and  _354
REMARK  158  A    between atoms: _357  and  _359
REMARK  159  A    between atoms: _359  and  _360
REMARK  160  A    between atoms: _362  and  _364
REMARK  161  A    between atoms: _364  and  _365
REMARK  162  A    between atoms: _364  and  _367
REMARK  163  A    between atoms: _367  and  _368
REMARK  164  A    between atoms: _374  and  _376
REMARK  165  A    between atoms: _376  and  _377
REMARK  166  A    between atoms: _376  and  _379
REMARK  167  A    between atoms: _379  and  _380
REMARK  168  A    between atoms: _385  and  _386
REMARK  169  A    between atoms: _388  and  _390
REMARK  170  A    between atoms: _390  and  _391
REMARK  171  A    between atoms: _390  and  _393
REMARK  172  A    between atoms: _393  and  _394
REMARK  173  A    between atoms: _396  and  _398
REMARK  174  A    between atoms: _398  and  _399
REMARK  175  A    between atoms: _398  and  _401
REMARK  176  A    between atoms: _404  and  _406
REMARK  177  A    between atoms: _406  and  _407
REMARK  178  A    between atoms: _406  and  _409
REMARK  179  A    between atoms: _409  and  _410
REMARK  180  A    between atoms: _413  and  _415
REMARK  181  A    between atoms: _415  and  _416
REMARK  182  A    between atoms: _415  and  _418
REMARK  183  A    between atoms: _421  and  _423
REMARK  184  A    between atoms: _423  and  _424
REMARK  185  A    between atoms: _423  and  _426
REMARK  186  A    between atoms: _426  and  _427
REMARK  187  A    between atoms: _430  and  _432
REMARK  188  A    between atoms: _432  and  _433
REMARK  189  A    between atoms: _432  and  _435
REMARK  190  A    between atoms: _435  and  _436
REMARK  191  A    between atoms: _439  and  _441
REMARK  192  A    between atoms: _441  and  _442
REMARK  193  A    between atoms: _441  and  _444
REMARK  194  A    between atoms: _444  and  _445
REMARK  195  A    between atoms: _445  and  _446
REMARK  196  A    between atoms: _446  and  _447
REMARK  197  A    between atoms: _447  and  _448
REMARK  198  A    between atoms: _452  and  _454
REMARK  199  A    between atoms: _454  and  _455
REMARK  200  A    between atoms: _454  and  _457
REMARK  201  A    between atoms: _457  and  _458
REMARK  202  A    between atoms: _463  and  _465
REMARK  203  A    between atoms: _465  and  _466
REMARK  204  A    between atoms: _465  and  _468
REMARK  205  A    between atoms: _468  and  _469
REMARK  206  A    between atoms: _479  and  _481
REMARK  207  A    between atoms: _481  and  _482
REMARK  208  A    between atoms: _484  and  _486
REMARK  209  A    between atoms: _486  and  _487
REMARK  210  A    between atoms: _486  and  _489
REMARK  211  A    between atoms: _489  and  _490
REMARK  212  A    between atoms: _493  and  _495
REMARK  213  A    between atoms: _495  and  _496
REMARK  214  A    between atoms: _495  and  _498
REMARK  215  A    between atoms: _498  and  _499
REMARK  216  A    between atoms: _499  and  _500
REMARK  217  A    between atoms: _500  and  _501
REMARK  218  A    between atoms: _501  and  _502
REMARK  219  A    between atoms: _506  and  _508
REMARK  220  A    between atoms: _508  and  _509
REMARK  221  A    between atoms: _508  and  _511
REMARK                            x       y       z     vdW  Elec       q    Type
REMARK                         _______ _______ _______ _____ _____    ______ ____
ROOT
ATOM      1  O   HOH     1     -24.026  21.506 -27.391  0.00  0.00    +0.000 OA
ENDROOT
TORSDOF 0
REMARK  Name = ../refined-set-2016/3wha/3wha_pocket.pdb
REMARK  221 active torsions:
REMARK  status: ('A' for Active; 'I' for Inactive)
REMARK    1  A    between atoms: _1  and  _3
REMARK    2  A    between atoms: _3  and  _4
REMARK    3  A    between atoms: _3  and  _6
REMARK    4  A    between atoms: _6  and  _7
REMARK    5  A    between atoms: _10  and  _12
REMARK    6  A    between atoms: _12  and  _13
REMARK    7  A    between atoms: _12  and  _15
REMARK    8  A    between atoms: _15  and  _16
REMARK    9  A    between atoms: _19  and  _21
REMARK   10  A    between atoms: _21  and  _22
REMARK   11  A    between atoms: _21  and  _24
REMARK   12  A    between atoms: _24  and  _25
REMARK   13  A    between atoms: _25  and  _26
REMARK   14  A    between atoms: _29  and  _31
REMARK   15  A    between atoms: _31  and  _32
REMARK   16  A    between atoms: _31  and  _34
REMARK   17  A    between atoms: _34  and  _35
REMARK   18  A    between atoms: _38  and  _40
REMARK   19  A    between atoms: _40  and  _41
REMARK   20  A    between atoms: _40  and  _43
REMARK   21  A    between atoms: _43  and  _44
REMARK   22  A    between atoms: _47  and  _49
REMARK   23  A    between atoms: _49  and  _50
REMARK   24  A    between atoms: _49  and  _52
REMARK   25  A    between atoms: _52  and  _53
REMARK   26  A    between atoms: _55  and  _57
REMARK   27  A    between atoms: _57  and  _58
REMARK   28  A    between atoms: _57  and  _60
REMARK   29  A    between atoms: _60  and  _61
REMARK   30  A    between atoms: _66  and  _68
REMARK   31  A    between atoms: _68  and  _69
REMARK   32  A    between atoms: _68  and  _71
REMARK   33  A    between atoms: _71  and  _72
REMARK   34  A    between atoms: _74  and  _76
REMARK   35  A    between atoms: _76  and  _77
REMARK   36  A    between atoms: _76  and  _79
REMARK   37  A    between atoms: _79  and  _80
REMARK   38  A    between atoms: _82  and  _84
REMARK   39  A    between atoms: _84  and  _85
REMARK   40  A    between atoms: _84  and  _87
REMARK   41  A    between atoms: _87  and  _88
REMARK   42  A    between atoms: _91  and  _93
REMARK   43  A    between atoms: _93  and  _94
REMARK   44  A    between atoms: _97  and  _99
REMARK   45  A    between atoms: _99  and  _100
REMARK   46  A    between atoms: _99  and  _102
REMARK   47  A    between atoms: _102  and  _103
REMARK   48  A    between atoms: _106  and  _108
REMARK   49  A    between atoms: _108  and  _109
REMARK   50  A    between atoms: _108  and  _111
REMARK   51  A    between atoms: _111  and  _112
REMARK   52  A    between atoms: _115  and  _117
REMARK   53  A    between atoms: _117  and  _118
REMARK   54  A    between atoms: _117  and  _120
REMARK   55  A    between atoms: _120  and  _121
REMARK   56  A    between atoms: _121  and  _122
REMARK   57  A    between atoms: _122  and  _123
REMARK   58  A    between atoms: _123  and  _124
REMARK   59  A    between atoms: _128  and  _130
REMARK   60  A    between atoms: _130  and  _131
REMARK   61  A    between atoms: _130  and  _133
REMARK   62  A    between atoms: _133  and  _134
REMARK   63  A    between atoms: _137  and  _139
REMARK   64  A    between atoms: _139  and  _140
REMARK   65  A    between atoms: _139  and  _142
REMARK   66  A    between atoms: _142  and  _143
REMARK   67  A    between atoms: _143  and  _144
REMARK   68  A    between atoms: _147  and  _149
REMARK   69  A    between atoms: _149  and  _150
REMARK   70  A    between atoms: _149  and  _152
REMARK   71  A    between atoms: _152  and  _153
REMARK   72  A    between atoms: _156  and  _158
REMARK   73  A    between atoms: _158  and  _159
REMARK   74  A    between atoms: _158  and  _161
REMARK   75  A    between atoms: _164  and  _166
REMARK   76  A    between atoms: _166  and  _167
REMARK   77  A    between atoms: _166  and  _169
REMARK   78  A    between atoms: _169  and  _170
REMARK   79  A    between atoms: _173  and  _175
REMARK   80  A    between atoms: _175  and  _176
REMARK   81  A    between atoms: _175  and  _178
REMARK   82  A    between atoms: _178  and  _179
REMARK   83  A    between atoms: _182  and  _184
REMARK   84  A    between atoms: _184  and  _185
REMARK   85  A    between atoms: _187  and  _189
REMARK   86  A    between atoms: _189  and  _190
REMARK   87  A    between atoms: _189  and  _192
REMARK   88  A    between atoms: _192  and  _193
REMARK   89  A    between atoms: _196  and  _198
REMARK   90  A    between atoms: _198  and  _199
REMARK   91  A    between atoms: _201  and  _203
REMARK   92  A    between atoms: _203  and  _204
REMARK   93  A    between atoms: _203  and  _206
REMARK   94  A    between atoms: _206  and  _207
REMARK   95  A    between atoms: _207  and  _208
REMARK   96  A    between atoms: _210  and  _212
REMARK   97  A    between atoms: _212  and  _213
REMARK   98  A    between atoms: _212  and  _215
REMARK   99  A    between atoms: _215  and  _216
REMARK  100  A    between atoms: _219  and  _221
REMARK  101  A    between atoms: _221  and  _222
REMARK  102  A    between atoms: _221  and  _224
REMARK  103  A    between atoms: _224  and  _225
REMARK  104  A    between atoms: _228  and  _230
REMARK  105  A    between atoms: _230  and  _231
REMARK  106  A    between atoms: _230  and  _233
REMARK  107  A    between atoms: _233  and  _234
REMARK  108  A    between atoms: _237  and  _239
REMARK  109  A    between atoms: _239  and  _240
REMARK  110  A    between atoms: _239  and  _242
REMARK  111  A    between atoms: _242  and  _243
REMARK  112  A    between atoms: _248  and  _250
REMARK  113  A    between atoms: _250  and  _251
REMARK  114  A    between atoms: _250  and  _253
REMARK  115  A    between atoms: _253  and  _254
REMARK  116  A    between atoms: _259  and  _261
REMARK  117  A    between atoms: _261  and  _262
REMARK  118  A    between atoms: _261  and  _264
REMARK  119  A    between atoms: _264  and  _265
REMARK  120  A    between atoms: _268  and  _270
REMARK  121  A    between atoms: _270  and  _271
REMARK  122  A    between atoms: _273  and  _275
REMARK  123  A    between atoms: _275  and  _276
REMARK  124  A    between atoms: _275  and  _278
REMARK  125  A    between atoms: _278  and  _279
REMARK  126  A    between atoms: _282  and  _284
REMARK  127  A    between atoms: _284  and  _285
REMARK  128  A    between atoms: _284  and  _287
REMARK  129  A    between atoms: _287  and  _288
REMARK  130  A    between atoms: _291  and  _293
REMARK  131  A    between atoms: _293  and  _294
REMARK  132  A    between atoms: _297  and  _299
REMARK  133  A    between atoms: _299  and  _300
REMARK  134  A    between atoms: _299  and  _302
REMARK  135  A    between atoms: _302  and  _303
REMARK  136  A    between atoms: _303  and  _304
REMARK  137  A    between atoms: _304  and  _305
REMARK  138  A    between atoms: _305  and  _306
REMARK  139  A    between atoms: _310  and  _312
REMARK  140  A    between atoms: _312  and  _313
REMARK  141  A    between atoms: _312  and  _315
REMARK  142  A    between atoms: _315  and  _316
REMARK  143  A    between atoms: _318  and  _320
REMARK  144  A    between atoms: _320  and  _321
REMARK  145  A    between atoms: _323  and  _325
REMARK  146  A    between atoms: _325  and  _326
REMARK  147  A    between atoms: _325  and  _328
REMARK  148  A    between atoms: _328  and  _329
REMARK  149  A    between atoms: _332  and  _334
REMARK  150  A    between atoms: _334  and  _335
REMARK  151  A    between atoms: _334  and  _337
REMARK  152  A    between atoms: _337  and  _338
REMARK  153  A    between atoms: _344  and  _346
REMARK  154  A    between atoms: _346  and  _347
REMARK  155  A    between atoms: _349  and  _351
REMARK  156  A    between atoms: _351  and  _352
REMARK  157  A    between atoms: _351  and  _354
REMARK  158  A    between atoms: _357  and  _359
REMARK  159  A    between atoms: _359  and  _360
REMARK  160  A    between atoms: _362  and  _364
REMARK  161  A    between atoms: _364  and  _365
REMARK  162  A    between atoms: _364  and  _367
REMARK  163  A    between atoms: _367  and  _368
REMARK  164  A    between atoms: _374  and  _376
REMARK  165  A    between atoms: _376  and  _377
REMARK  166  A    between atoms: _376  and  _379
REMARK  167  A    between atoms: _379  and  _380
REMARK  168  A    between atoms: _385  and  _386
REMARK  169  A    between atoms: _388  and  _390
REMARK  170  A    between atoms: _390  and  _391
REMARK  171  A    between atoms: _390  and  _393
REMARK  172  A    between atoms: _393  and  _394
REMARK  173  A    between atoms: _396  and  _398
REMARK  174  A    between atoms: _398  and  _399
REMARK  175  A    between atoms: _398  and  _401
REMARK  176  A    between atoms: _404  and  _406
REMARK  177  A    between atoms: _406  and  _407
REMARK  178  A    between atoms: _406  and  _409
REMARK  179  A    between atoms: _409  and  _410
REMARK  180  A    between atoms: _413  and  _415
REMARK  181  A    between atoms: _415  and  _416
REMARK  182  A    between atoms: _415  and  _418
REMARK  183  A    between atoms: _421  and  _423
REMARK  184  A    between atoms: _423  and  _424
REMARK  185  A    between atoms: _423  and  _426
REMARK  186  A    between atoms: _426  and  _427
REMARK  187  A    between atoms: _430  and  _432
REMARK  188  A    between atoms: _432  and  _433
REMARK  189  A    between atoms: _432  and  _435
REMARK  190  A    between atoms: _435  and  _436
REMARK  191  A    between atoms: _439  and  _441
REMARK  192  A    between atoms: _441  and  _442
REMARK  193  A    between atoms: _441  and  _444
REMARK  194  A    between atoms: _444  and  _445
REMARK  195  A    between atoms: _445  and  _446
REMARK  196  A    between atoms: _446  and  _447
REMARK  197  A    between atoms: _447  and  _448
REMARK  198  A    between atoms: _452  and  _454
REMARK  199  A    between atoms: _454  and  _455
REMARK  200  A    between atoms: _454  and  _457
REMARK  201  A    between atoms: _457  and  _458
REMARK  202  A    between atoms: _463  and  _465
REMARK  203  A    between atoms: _465  and  _466
REMARK  204  A    between atoms: _465  and  _468
REMARK  205  A    between atoms: _468  and  _469
REMARK  206  A    between atoms: _479  and  _481
REMARK  207  A    between atoms: _481  and  _482
REMARK  208  A    between atoms: _484  and  _486
REMARK  209  A    between atoms: _486  and  _487
REMARK  210  A    between atoms: _486  and  _489
REMARK  211  A    between atoms: _489  and  _490
REMARK  212  A    between atoms: _493  and  _495
REMARK  213  A    between atoms: _495  and  _496
REMARK  214  A    between atoms: _495  and  _498
REMARK  215  A    between atoms: _498  and  _499
REMARK  216  A    between atoms: _499  and  _500
REMARK  217  A    between atoms: _500  and  _501
REMARK  218  A    between atoms: _501  and  _502
REMARK  219  A    between atoms: _506  and  _508
REMARK  220  A    between atoms: _508  and  _509
REMARK  221  A    between atoms: _508  and  _511
REMARK                            x       y       z     vdW  Elec       q    Type
REMARK                         _______ _______ _______ _____ _____    ______ ____
ROOT
ATOM      1  O   HOH     1     -29.319  15.991 -22.503  0.00  0.00    +0.000 OA
ENDROOT
TORSDOF 0
REMARK  Name = ../refined-set-2016/3wha/3wha_pocket.pdb
REMARK  221 active torsions:
REMARK  status: ('A' for Active; 'I' for Inactive)
REMARK    1  A    between atoms: _1  and  _3
REMARK    2  A    between atoms: _3  and  _4
REMARK    3  A    between atoms: _3  and  _6
REMARK    4  A    between atoms: _6  and  _7
REMARK    5  A    between atoms: _10  and  _12
REMARK    6  A    between atoms: _12  and  _13
REMARK    7  A    between atoms: _12  and  _15
REMARK    8  A    between atoms: _15  and  _16
REMARK    9  A    between atoms: _19  and  _21
REMARK   10  A    between atoms: _21  and  _22
REMARK   11  A    between atoms: _21  and  _24
REMARK   12  A    between atoms: _24  and  _25
REMARK   13  A    between atoms: _25  and  _26
REMARK   14  A    between atoms: _29  and  _31
REMARK   15  A    between atoms: _31  and  _32
REMARK   16  A    between atoms: _31  and  _34
REMARK   17  A    between atoms: _34  and  _35
REMARK   18  A    between atoms: _38  and  _40
REMARK   19  A    between atoms: _40  and  _41
REMARK   20  A    between atoms: _40  and  _43
REMARK   21  A    between atoms: _43  and  _44
REMARK   22  A    between atoms: _47  and  _49
REMARK   23  A    between atoms: _49  and  _50
REMARK   24  A    between atoms: _49  and  _52
REMARK   25  A    between atoms: _52  and  _53
REMARK   26  A    between atoms: _55  and  _57
REMARK   27  A    between atoms: _57  and  _58
REMARK   28  A    between atoms: _57  and  _60
REMARK   29  A    between atoms: _60  and  _61
REMARK   30  A    between atoms: _66  and  _68
REMARK   31  A    between atoms: _68  and  _69
REMARK   32  A    between atoms: _68  and  _71
REMARK   33  A    between atoms: _71  and  _72
REMARK   34  A    between atoms: _74  and  _76
REMARK   35  A    between atoms: _76  and  _77
REMARK   36  A    between atoms: _76  and  _79
REMARK   37  A    between atoms: _79  and  _80
REMARK   38  A    between atoms: _82  and  _84
REMARK   39  A    between atoms: _84  and  _85
REMARK   40  A    between atoms: _84  and  _87
REMARK   41  A    between atoms: _87  and  _88
REMARK   42  A    between atoms: _91  and  _93
REMARK   43  A    between atoms: _93  and  _94
REMARK   44  A    between atoms: _97  and  _99
REMARK   45  A    between atoms: _99  and  _100
REMARK   46  A    between atoms: _99  and  _102
REMARK   47  A    between atoms: _102  and  _103
REMARK   48  A    between atoms: _106  and  _108
REMARK   49  A    between atoms: _108  and  _109
REMARK   50  A    between atoms: _108  and  _111
REMARK   51  A    between atoms: _111  and  _112
REMARK   52  A    between atoms: _115  and  _117
REMARK   53  A    between atoms: _117  and  _118
REMARK   54  A    between atoms: _117  and  _120
REMARK   55  A    between atoms: _120  and  _121
REMARK   56  A    between atoms: _121  and  _122
REMARK   57  A    between atoms: _122  and  _123
REMARK   58  A    between atoms: _123  and  _124
REMARK   59  A    between atoms: _128  and  _130
REMARK   60  A    between atoms: _130  and  _131
REMARK   61  A    between atoms: _130  and  _133
REMARK   62  A    between atoms: _133  and  _134
REMARK   63  A    between atoms: _137  and  _139
REMARK   64  A    between atoms: _139  and  _140
REMARK   65  A    between atoms: _139  and  _142
REMARK   66  A    between atoms: _142  and  _143
REMARK   67  A    between atoms: _143  and  _144
REMARK   68  A    between atoms: _147  and  _149
REMARK   69  A    between atoms: _149  and  _150
REMARK   70  A    between atoms: _149  and  _152
REMARK   71  A    between atoms: _152  and  _153
REMARK   72  A    between atoms: _156  and  _158
REMARK   73  A    between atoms: _158  and  _159
REMARK   74  A    between atoms: _158  and  _161
REMARK   75  A    between atoms: _164  and  _166
REMARK   76  A    between atoms: _166  and  _167
REMARK   77  A    between atoms: _166  and  _169
REMARK   78  A    between atoms: _169  and  _170
REMARK   79  A    between atoms: _173  and  _175
REMARK   80  A    between atoms: _175  and  _176
REMARK   81  A    between atoms: _175  and  _178
REMARK   82  A    between atoms: _178  and  _179
REMARK   83  A    between atoms: _182  and  _184
REMARK   84  A    between atoms: _184  and  _185
REMARK   85  A    between atoms: _187  and  _189
REMARK   86  A    between atoms: _189  and  _190
REMARK   87  A    between atoms: _189  and  _192
REMARK   88  A    between atoms: _192  and  _193
REMARK   89  A    between atoms: _196  and  _198
REMARK   90  A    between atoms: _198  and  _199
REMARK   91  A    between atoms: _201  and  _203
REMARK   92  A    between atoms: _203  and  _204
REMARK   93  A    between atoms: _203  and  _206
REMARK   94  A    between atoms: _206  and  _207
REMARK   95  A    between atoms: _207  and  _208
REMARK   96  A    between atoms: _210  and  _212
REMARK   97  A    between atoms: _212  and  _213
REMARK   98  A    between atoms: _212  and  _215
REMARK   99  A    between atoms: _215  and  _216
REMARK  100  A    between atoms: _219  and  _221
REMARK  101  A    between atoms: _221  and  _222
REMARK  102  A    between atoms: _221  and  _224
REMARK  103  A    between atoms: _224  and  _225
REMARK  104  A    between atoms: _228  and  _230
REMARK  105  A    between atoms: _230  and  _231
REMARK  106  A    between atoms: _230  and  _233
REMARK  107  A    between atoms: _233  and  _234
REMARK  108  A    between atoms: _237  and  _239
REMARK  109  A    between atoms: _239  and  _240
REMARK  110  A    between atoms: _239  and  _242
REMARK  111  A    between atoms: _242  and  _243
REMARK  112  A    between atoms: _248  and  _250
REMARK  113  A    between atoms: _250  and  _251
REMARK  114  A    between atoms: _250  and  _253
REMARK  115  A    between atoms: _253  and  _254
REMARK  116  A    between atoms: _259  and  _261
REMARK  117  A    between atoms: _261  and  _262
REMARK  118  A    between atoms: _261  and  _264
REMARK  119  A    between atoms: _264  and  _265
REMARK  120  A    between atoms: _268  and  _270
REMARK  121  A    between atoms: _270  and  _271
REMARK  122  A    between atoms: _273  and  _275
REMARK  123  A    between atoms: _275  and  _276
REMARK  124  A    between atoms: _275  and  _278
REMARK  125  A    between atoms: _278  and  _279
REMARK  126  A    between atoms: _282  and  _284
REMARK  127  A    between atoms: _284  and  _285
REMARK  128  A    between atoms: _284  and  _287
REMARK  129  A    between atoms: _287  and  _288
REMARK  130  A    between atoms: _291  and  _293
REMARK  131  A    between atoms: _293  and  _294
REMARK  132  A    between atoms: _297  and  _299
REMARK  133  A    between atoms: _299  and  _300
REMARK  134  A    between atoms: _299  and  _302
REMARK  135  A    between atoms: _302  and  _303
REMARK  136  A    between atoms: _303  and  _304
REMARK  137  A    between atoms: _304  and  _305
REMARK  138  A    between atoms: _305  and  _306
REMARK  139  A    between atoms: _310  and  _312
REMARK  140  A    between atoms: _312  and  _313
REMARK  141  A    between atoms: _312  and  _315
REMARK  142  A    between atoms: _315  and  _316
REMARK  143  A    between atoms: _318  and  _320
REMARK  144  A    between atoms: _320  and  _321
REMARK  145  A    between atoms: _323  and  _325
REMARK  146  A    between atoms: _325  and  _326
REMARK  147  A    between atoms: _325  and  _328
REMARK  148  A    between atoms: _328  and  _329
REMARK  149  A    between atoms: _332  and  _334
REMARK  150  A    between atoms: _334  and  _335
REMARK  151  A    between atoms: _334  and  _337
REMARK  152  A    between atoms: _337  and  _338
REMARK  153  A    between atoms: _344  and  _346
REMARK  154  A    between atoms: _346  and  _347
REMARK  155  A    between atoms: _349  and  _351
REMARK  156  A    between atoms: _351  and  _352
REMARK  157  A    between atoms: _351  and  _354
REMARK  158  A    between atoms: _357  and  _359
REMARK  159  A    between atoms: _359  and  _360
REMARK  160  A    between atoms: _362  and  _364
REMARK  161  A    between atoms: _364  and  _365
REMARK  162  A    between atoms: _364  and  _367
REMARK  163  A    between atoms: _367  and  _368
REMARK  164  A    between atoms: _374  and  _376
REMARK  165  A    between atoms: _376  and  _377
REMARK  166  A    between atoms: _376  and  _379
REMARK  167  A    between atoms: _379  and  _380
REMARK  168  A    between atoms: _385  and  _386
REMARK  169  A    between atoms: _388  and  _390
REMARK  170  A    between atoms: _390  and  _391
REMARK  171  A    between atoms: _390  and  _393
REMARK  172  A    between atoms: _393  and  _394
REMARK  173  A    between atoms: _396  and  _398
REMARK  174  A    between atoms: _398  and  _399
REMARK  175  A    between atoms: _398  and  _401
REMARK  176  A    between atoms: _404  and  _406
REMARK  177  A    between atoms: _406  and  _407
REMARK  178  A    between atoms: _406  and  _409
REMARK  179  A    between atoms: _409  and  _410
REMARK  180  A    between atoms: _413  and  _415
REMARK  181  A    between atoms: _415  and  _416
REMARK  182  A    between atoms: _415  and  _418
REMARK  183  A    between atoms: _421  and  _423
REMARK  184  A    between atoms: _423  and  _424
REMARK  185  A    between atoms: _423  and  _426
REMARK  186  A    between atoms: _426  and  _427
REMARK  187  A    between atoms: _430  and  _432
REMARK  188  A    between atoms: _432  and  _433
REMARK  189  A    between atoms: _432  and  _435
REMARK  190  A    between atoms: _435  and  _436
REMARK  191  A    between atoms: _439  and  _441
REMARK  192  A    between atoms: _441  and  _442
REMARK  193  A    between atoms: _441  and  _444
REMARK  194  A    between atoms: _444  and  _445
REMARK  195  A    between atoms: _445  and  _446
REMARK  196  A    between atoms: _446  and  _447
REMARK  197  A    between atoms: _447  and  _448
REMARK  198  A    between atoms: _452  and  _454
REMARK  199  A    between atoms: _454  and  _455
REMARK  200  A    between atoms: _454  and  _457
REMARK  201  A    between atoms: _457  and  _458
REMARK  202  A    between atoms: _463  and  _465
REMARK  203  A    between atoms: _465  and  _466
REMARK  204  A    between atoms: _465  and  _468
REMARK  205  A    between atoms: _468  and  _469
REMARK  206  A    between atoms: _479  and  _481
REMARK  207  A    between atoms: _481  and  _482
REMARK  208  A    between atoms: _484  and  _486
REMARK  209  A    between atoms: _486  and  _487
REMARK  210  A    between atoms: _486  and  _489
REMARK  211  A    between atoms: _489  and  _490
REMARK  212  A    between atoms: _493  and  _495
REMARK  213  A    between atoms: _495  and  _496
REMARK  214  A    between atoms: _495  and  _498
REMARK  215  A    between atoms: _498  and  _499
REMARK  216  A    between atoms: _499  and  _500
REMARK  217  A    between atoms: _500  and  _501
REMARK  218  A    between atoms: _501  and  _502
REMARK  219  A    between atoms: _506  and  _508
REMARK  220  A    between atoms: _508  and  _509
REMARK  221  A    between atoms: _508  and  _511
REMARK                            x       y       z     vdW  Elec       q    Type
REMARK                         _______ _______ _______ _____ _____    ______ ____
ROOT
ATOM      1  O   HOH     1     -30.124  14.664 -20.136  0.00  0.00    +0.000 OA
ENDROOT
TORSDOF 0
REMARK  Name = ../refined-set-2016/3wha/3wha_pocket.pdb
REMARK  221 active torsions:
REMARK  status: ('A' for Active; 'I' for Inactive)
REMARK    1  A    between atoms: _1  and  _3
REMARK    2  A    between atoms: _3  and  _4
REMARK    3  A    between atoms: _3  and  _6
REMARK    4  A    between atoms: _6  and  _7
REMARK    5  A    between atoms: _10  and  _12
REMARK    6  A    between atoms: _12  and  _13
REMARK    7  A    between atoms: _12  and  _15
REMARK    8  A    between atoms: _15  and  _16
REMARK    9  A    between atoms: _19  and  _21
REMARK   10  A    between atoms: _21  and  _22
REMARK   11  A    between atoms: _21  and  _24
REMARK   12  A    between atoms: _24  and  _25
REMARK   13  A    between atoms: _25  and  _26
REMARK   14  A    between atoms: _29  and  _31
REMARK   15  A    between atoms: _31  and  _32
REMARK   16  A    between atoms: _31  and  _34
REMARK   17  A    between atoms: _34  and  _35
REMARK   18  A    between atoms: _38  and  _40
REMARK   19  A    between atoms: _40  and  _41
REMARK   20  A    between atoms: _40  and  _43
REMARK   21  A    between atoms: _43  and  _44
REMARK   22  A    between atoms: _47  and  _49
REMARK   23  A    between atoms: _49  and  _50
REMARK   24  A    between atoms: _49  and  _52
REMARK   25  A    between atoms: _52  and  _53
REMARK   26  A    between atoms: _55  and  _57
REMARK   27  A    between atoms: _57  and  _58
REMARK   28  A    between atoms: _57  and  _60
REMARK   29  A    between atoms: _60  and  _61
REMARK   30  A    between atoms: _66  and  _68
REMARK   31  A    between atoms: _68  and  _69
REMARK   32  A    between atoms: _68  and  _71
REMARK   33  A    between atoms: _71  and  _72
REMARK   34  A    between atoms: _74  and  _76
REMARK   35  A    between atoms: _76  and  _77
REMARK   36  A    between atoms: _76  and  _79
REMARK   37  A    between atoms: _79  and  _80
REMARK   38  A    between atoms: _82  and  _84
REMARK   39  A    between atoms: _84  and  _85
REMARK   40  A    between atoms: _84  and  _87
REMARK   41  A    between atoms: _87  and  _88
REMARK   42  A    between atoms: _91  and  _93
REMARK   43  A    between atoms: _93  and  _94
REMARK   44  A    between atoms: _97  and  _99
REMARK   45  A    between atoms: _99  and  _100
REMARK   46  A    between atoms: _99  and  _102
REMARK   47  A    between atoms: _102  and  _103
REMARK   48  A    between atoms: _106  and  _108
REMARK   49  A    between atoms: _108  and  _109
REMARK   50  A    between atoms: _108  and  _111
REMARK   51  A    between atoms: _111  and  _112
REMARK   52  A    between atoms: _115  and  _117
REMARK   53  A    between atoms: _117  and  _118
REMARK   54  A    between atoms: _117  and  _120
REMARK   55  A    between atoms: _120  and  _121
REMARK   56  A    between atoms: _121  and  _122
REMARK   57  A    between atoms: _122  and  _123
REMARK   58  A    between atoms: _123  and  _124
REMARK   59  A    between atoms: _128  and  _130
REMARK   60  A    between atoms: _130  and  _131
REMARK   61  A    between atoms: _130  and  _133
REMARK   62  A    between atoms: _133  and  _134
REMARK   63  A    between atoms: _137  and  _139
REMARK   64  A    between atoms: _139  and  _140
REMARK   65  A    between atoms: _139  and  _142
REMARK   66  A    between atoms: _142  and  _143
REMARK   67  A    between atoms: _143  and  _144
REMARK   68  A    between atoms: _147  and  _149
REMARK   69  A    between atoms: _149  and  _150
REMARK   70  A    between atoms: _149  and  _152
REMARK   71  A    between atoms: _152  and  _153
REMARK   72  A    between atoms: _156  and  _158
REMARK   73  A    between atoms: _158  and  _159
REMARK   74  A    between atoms: _158  and  _161
REMARK   75  A    between atoms: _164  and  _166
REMARK   76  A    between atoms: _166  and  _167
REMARK   77  A    between atoms: _166  and  _169
REMARK   78  A    between atoms: _169  and  _170
REMARK   79  A    between atoms: _173  and  _175
REMARK   80  A    between atoms: _175  and  _176
REMARK   81  A    between atoms: _175  and  _178
REMARK   82  A    between atoms: _178  and  _179
REMARK   83  A    between atoms: _182  and  _184
REMARK   84  A    between atoms: _184  and  _185
REMARK   85  A    between atoms: _187  and  _189
REMARK   86  A    between atoms: _189  and  _190
REMARK   87  A    between atoms: _189  and  _192
REMARK   88  A    between atoms: _192  and  _193
REMARK   89  A    between atoms: _196  and  _198
REMARK   90  A    between atoms: _198  and  _199
REMARK   91  A    between atoms: _201  and  _203
REMARK   92  A    between atoms: _203  and  _204
REMARK   93  A    between atoms: _203  and  _206
REMARK   94  A    between atoms: _206  and  _207
REMARK   95  A    between atoms: _207  and  _208
REMARK   96  A    between atoms: _210  and  _212
REMARK   97  A    between atoms: _212  and  _213
REMARK   98  A    between atoms: _212  and  _215
REMARK   99  A    between atoms: _215  and  _216
REMARK  100  A    between atoms: _219  and  _221
REMARK  101  A    between atoms: _221  and  _222
REMARK  102  A    between atoms: _221  and  _224
REMARK  103  A    between atoms: _224  and  _225
REMARK  104  A    between atoms: _228  and  _230
REMARK  105  A    between atoms: _230  and  _231
REMARK  106  A    between atoms: _230  and  _233
REMARK  107  A    between atoms: _233  and  _234
REMARK  108  A    between atoms: _237  and  _239
REMARK  109  A    between atoms: _239  and  _240
REMARK  110  A    between atoms: _239  and  _242
REMARK  111  A    between atoms: _242  and  _243
REMARK  112  A    between atoms: _248  and  _250
REMARK  113  A    between atoms: _250  and  _251
REMARK  114  A    between atoms: _250  and  _253
REMARK  115  A    between atoms: _253  and  _254
REMARK  116  A    between atoms: _259  and  _261
REMARK  117  A    between atoms: _261  and  _262
REMARK  118  A    between atoms: _261  and  _264
REMARK  119  A    between atoms: _264  and  _265
REMARK  120  A    between atoms: _268  and  _270
REMARK  121  A    between atoms: _270  and  _271
REMARK  122  A    between atoms: _273  and  _275
REMARK  123  A    between atoms: _275  and  _276
REMARK  124  A    between atoms: _275  and  _278
REMARK  125  A    between atoms: _278  and  _279
REMARK  126  A    between atoms: _282  and  _284
REMARK  127  A    between atoms: _284  and  _285
REMARK  128  A    between atoms: _284  and  _287
REMARK  129  A    between atoms: _287  and  _288
REMARK  130  A    between atoms: _291  and  _293
REMARK  131  A    between atoms: _293  and  _294
REMARK  132  A    between atoms: _297  and  _299
REMARK  133  A    between atoms: _299  and  _300
REMARK  134  A    between atoms: _299  and  _302
REMARK  135  A    between atoms: _302  and  _303
REMARK  136  A    between atoms: _303  and  _304
REMARK  137  A    between atoms: _304  and  _305
REMARK  138  A    between atoms: _305  and  _306
REMARK  139  A    between atoms: _310  and  _312
REMARK  140  A    between atoms: _312  and  _313
REMARK  141  A    between atoms: _312  and  _315
REMARK  142  A    between atoms: _315  and  _316
REMARK  143  A    between atoms: _318  and  _320
REMARK  144  A    between atoms: _320  and  _321
REMARK  145  A    between atoms: _323  and  _325
REMARK  146  A    between atoms: _325  and  _326
REMARK  147  A    between atoms: _325  and  _328
REMARK  148  A    between atoms: _328  and  _329
REMARK  149  A    between atoms: _332  and  _334
REMARK  150  A    between atoms: _334  and  _335
REMARK  151  A    between atoms: _334  and  _337
REMARK  152  A    between atoms: _337  and  _338
REMARK  153  A    between atoms: _344  and  _346
REMARK  154  A    between atoms: _346  and  _347
REMARK  155  A    between atoms: _349  and  _351
REMARK  156  A    between atoms: _351  and  _352
REMARK  157  A    between atoms: _351  and  _354
REMARK  158  A    between atoms: _357  and  _359
REMARK  159  A    between atoms: _359  and  _360
REMARK  160  A    between atoms: _362  and  _364
REMARK  161  A    between atoms: _364  and  _365
REMARK  162  A    between atoms: _364  and  _367
REMARK  163  A    between atoms: _367  and  _368
REMARK  164  A    between atoms: _374  and  _376
REMARK  165  A    between atoms: _376  and  _377
REMARK  166  A    between atoms: _376  and  _379
REMARK  167  A    between atoms: _379  and  _380
REMARK  168  A    between atoms: _385  and  _386
REMARK  169  A    between atoms: _388  and  _390
REMARK  170  A    between atoms: _390  and  _391
REMARK  171  A    between atoms: _390  and  _393
REMARK  172  A    between atoms: _393  and  _394
REMARK  173  A    between atoms: _396  and  _398
REMARK  174  A    between atoms: _398  and  _399
REMARK  175  A    between atoms: _398  and  _401
REMARK  176  A    between atoms: _404  and  _406
REMARK  177  A    between atoms: _406  and  _407
REMARK  178  A    between atoms: _406  and  _409
REMARK  179  A    between atoms: _409  and  _410
REMARK  180  A    between atoms: _413  and  _415
REMARK  181  A    between atoms: _415  and  _416
REMARK  182  A    between atoms: _415  and  _418
REMARK  183  A    between atoms: _421  and  _423
REMARK  184  A    between atoms: _423  and  _424
REMARK  185  A    between atoms: _423  and  _426
REMARK  186  A    between atoms: _426  and  _427
REMARK  187  A    between atoms: _430  and  _432
REMARK  188  A    between atoms: _432  and  _433
REMARK  189  A    between atoms: _432  and  _435
REMARK  190  A    between atoms: _435  and  _436
REMARK  191  A    between atoms: _439  and  _441
REMARK  192  A    between atoms: _441  and  _442
REMARK  193  A    between atoms: _441  and  _444
REMARK  194  A    between atoms: _444  and  _445
REMARK  195  A    between atoms: _445  and  _446
REMARK  196  A    between atoms: _446  and  _447
REMARK  197  A    between atoms: _447  and  _448
REMARK  198  A    between atoms: _452  and  _454
REMARK  199  A    between atoms: _454  and  _455
REMARK  200  A    between atoms: _454  and  _457
REMARK  201  A    between atoms: _457  and  _458
REMARK  202  A    between atoms: _463  and  _465
REMARK  203  A    between atoms: _465  and  _466
REMARK  204  A    between atoms: _465  and  _468
REMARK  205  A    between atoms: _468  and  _469
REMARK  206  A    between atoms: _479  and  _481
REMARK  207  A    between atoms: _481  and  _482
REMARK  208  A    between atoms: _484  and  _486
REMARK  209  A    between atoms: _486  and  _487
REMARK  210  A    between atoms: _486  and  _489
REMARK  211  A    between atoms: _489  and  _490
REMARK  212  A    between atoms: _493  and  _495
REMARK  213  A    between atoms: _495  and  _496
REMARK  214  A    between atoms: _495  and  _498
REMARK  215  A    between atoms: _498  and  _499
REMARK  216  A    between atoms: _499  and  _500
REMARK  217  A    between atoms: _500  and  _501
REMARK  218  A    between atoms: _501  and  _502
REMARK  219  A    between atoms: _506  and  _508
REMARK  220  A    between atoms: _508  and  _509
REMARK  221  A    between atoms: _508  and  _511
REMARK                            x       y       z     vdW  Elec       q    Type
REMARK                         _______ _______ _______ _____ _____    ______ ____
ROOT
ATOM      1  O   HOH     1     -28.972  26.094 -23.895  0.00  0.00    +0.000 OA
ENDROOT
TORSDOF 0
REMARK  Name = ../refined-set-2016/3wha/3wha_pocket.pdb
REMARK  221 active torsions:
REMARK  status: ('A' for Active; 'I' for Inactive)
REMARK    1  A    between atoms: _1  and  _3
REMARK    2  A    between atoms: _3  and  _4
REMARK    3  A    between atoms: _3  and  _6
REMARK    4  A    between atoms: _6  and  _7
REMARK    5  A    between atoms: _10  and  _12
REMARK    6  A    between atoms: _12  and  _13
REMARK    7  A    between atoms: _12  and  _15
REMARK    8  A    between atoms: _15  and  _16
REMARK    9  A    between atoms: _19  and  _21
REMARK   10  A    between atoms: _21  and  _22
REMARK   11  A    between atoms: _21  and  _24
REMARK   12  A    between atoms: _24  and  _25
REMARK   13  A    between atoms: _25  and  _26
REMARK   14  A    between atoms: _29  and  _31
REMARK   15  A    between atoms: _31  and  _32
REMARK   16  A    between atoms: _31  and  _34
REMARK   17  A    between atoms: _34  and  _35
REMARK   18  A    between atoms: _38  and  _40
REMARK   19  A    between atoms: _40  and  _41
REMARK   20  A    between atoms: _40  and  _43
REMARK   21  A    between atoms: _43  and  _44
REMARK   22  A    between atoms: _47  and  _49
REMARK   23  A    between atoms: _49  and  _50
REMARK   24  A    between atoms: _49  and  _52
REMARK   25  A    between atoms: _52  and  _53
REMARK   26  A    between atoms: _55  and  _57
REMARK   27  A    between atoms: _57  and  _58
REMARK   28  A    between atoms: _57  and  _60
REMARK   29  A    between atoms: _60  and  _61
REMARK   30  A    between atoms: _66  and  _68
REMARK   31  A    between atoms: _68  and  _69
REMARK   32  A    between atoms: _68  and  _71
REMARK   33  A    between atoms: _71  and  _72
REMARK   34  A    between atoms: _74  and  _76
REMARK   35  A    between atoms: _76  and  _77
REMARK   36  A    between atoms: _76  and  _79
REMARK   37  A    between atoms: _79  and  _80
REMARK   38  A    between atoms: _82  and  _84
REMARK   39  A    between atoms: _84  and  _85
REMARK   40  A    between atoms: _84  and  _87
REMARK   41  A    between atoms: _87  and  _88
REMARK   42  A    between atoms: _91  and  _93
REMARK   43  A    between atoms: _93  and  _94
REMARK   44  A    between atoms: _97  and  _99
REMARK   45  A    between atoms: _99  and  _100
REMARK   46  A    between atoms: _99  and  _102
REMARK   47  A    between atoms: _102  and  _103
REMARK   48  A    between atoms: _106  and  _108
REMARK   49  A    between atoms: _108  and  _109
REMARK   50  A    between atoms: _108  and  _111
REMARK   51  A    between atoms: _111  and  _112
REMARK   52  A    between atoms: _115  and  _117
REMARK   53  A    between atoms: _117  and  _118
REMARK   54  A    between atoms: _117  and  _120
REMARK   55  A    between atoms: _120  and  _121
REMARK   56  A    between atoms: _121  and  _122
REMARK   57  A    between atoms: _122  and  _123
REMARK   58  A    between atoms: _123  and  _124
REMARK   59  A    between atoms: _128  and  _130
REMARK   60  A    between atoms: _130  and  _131
REMARK   61  A    between atoms: _130  and  _133
REMARK   62  A    between atoms: _133  and  _134
REMARK   63  A    between atoms: _137  and  _139
REMARK   64  A    between atoms: _139  and  _140
REMARK   65  A    between atoms: _139  and  _142
REMARK   66  A    between atoms: _142  and  _143
REMARK   67  A    between atoms: _143  and  _144
REMARK   68  A    between atoms: _147  and  _149
REMARK   69  A    between atoms: _149  and  _150
REMARK   70  A    between atoms: _149  and  _152
REMARK   71  A    between atoms: _152  and  _153
REMARK   72  A    between atoms: _156  and  _158
REMARK   73  A    between atoms: _158  and  _159
REMARK   74  A    between atoms: _158  and  _161
REMARK   75  A    between atoms: _164  and  _166
REMARK   76  A    between atoms: _166  and  _167
REMARK   77  A    between atoms: _166  and  _169
REMARK   78  A    between atoms: _169  and  _170
REMARK   79  A    between atoms: _173  and  _175
REMARK   80  A    between atoms: _175  and  _176
REMARK   81  A    between atoms: _175  and  _178
REMARK   82  A    between atoms: _178  and  _179
REMARK   83  A    between atoms: _182  and  _184
REMARK   84  A    between atoms: _184  and  _185
REMARK   85  A    between atoms: _187  and  _189
REMARK   86  A    between atoms: _189  and  _190
REMARK   87  A    between atoms: _189  and  _192
REMARK   88  A    between atoms: _192  and  _193
REMARK   89  A    between atoms: _196  and  _198
REMARK   90  A    between atoms: _198  and  _199
REMARK   91  A    between atoms: _201  and  _203
REMARK   92  A    between atoms: _203  and  _204
REMARK   93  A    between atoms: _203  and  _206
REMARK   94  A    between atoms: _206  and  _207
REMARK   95  A    between atoms: _207  and  _208
REMARK   96  A    between atoms: _210  and  _212
REMARK   97  A    between atoms: _212  and  _213
REMARK   98  A    between atoms: _212  and  _215
REMARK   99  A    between atoms: _215  and  _216
REMARK  100  A    between atoms: _219  and  _221
REMARK  101  A    between atoms: _221  and  _222
REMARK  102  A    between atoms: _221  and  _224
REMARK  103  A    between atoms: _224  and  _225
REMARK  104  A    between atoms: _228  and  _230
REMARK  105  A    between atoms: _230  and  _231
REMARK  106  A    between atoms: _230  and  _233
REMARK  107  A    between atoms: _233  and  _234
REMARK  108  A    between atoms: _237  and  _239
REMARK  109  A    between atoms: _239  and  _240
REMARK  110  A    between atoms: _239  and  _242
REMARK  111  A    between atoms: _242  and  _243
REMARK  112  A    between atoms: _248  and  _250
REMARK  113  A    between atoms: _250  and  _251
REMARK  114  A    between atoms: _250  and  _253
REMARK  115  A    between atoms: _253  and  _254
REMARK  116  A    between atoms: _259  and  _261
REMARK  117  A    between atoms: _261  and  _262
REMARK  118  A    between atoms: _261  and  _264
REMARK  119  A    between atoms: _264  and  _265
REMARK  120  A    between atoms: _268  and  _270
REMARK  121  A    between atoms: _270  and  _271
REMARK  122  A    between atoms: _273  and  _275
REMARK  123  A    between atoms: _275  and  _276
REMARK  124  A    between atoms: _275  and  _278
REMARK  125  A    between atoms: _278  and  _279
REMARK  126  A    between atoms: _282  and  _284
REMARK  127  A    between atoms: _284  and  _285
REMARK  128  A    between atoms: _284  and  _287
REMARK  129  A    between atoms: _287  and  _288
REMARK  130  A    between atoms: _291  and  _293
REMARK  131  A    between atoms: _293  and  _294
REMARK  132  A    between atoms: _297  and  _299
REMARK  133  A    between atoms: _299  and  _300
REMARK  134  A    between atoms: _299  and  _302
REMARK  135  A    between atoms: _302  and  _303
REMARK  136  A    between atoms: _303  and  _304
REMARK  137  A    between atoms: _304  and  _305
REMARK  138  A    between atoms: _305  and  _306
REMARK  139  A    between atoms: _310  and  _312
REMARK  140  A    between atoms: _312  and  _313
REMARK  141  A    between atoms: _312  and  _315
REMARK  142  A    between atoms: _315  and  _316
REMARK  143  A    between atoms: _318  and  _320
REMARK  144  A    between atoms: _320  and  _321
REMARK  145  A    between atoms: _323  and  _325
REMARK  146  A    between atoms: _325  and  _326
REMARK  147  A    between atoms: _325  and  _328
REMARK  148  A    between atoms: _328  and  _329
REMARK  149  A    between atoms: _332  and  _334
REMARK  150  A    between atoms: _334  and  _335
REMARK  151  A    between atoms: _334  and  _337
REMARK  152  A    between atoms: _337  and  _338
REMARK  153  A    between atoms: _344  and  _346
REMARK  154  A    between atoms: _346  and  _347
REMARK  155  A    between atoms: _349  and  _351
REMARK  156  A    between atoms: _351  and  _352
REMARK  157  A    between atoms: _351  and  _354
REMARK  158  A    between atoms: _357  and  _359
REMARK  159  A    between atoms: _359  and  _360
REMARK  160  A    between atoms: _362  and  _364
REMARK  161  A    between atoms: _364  and  _365
REMARK  162  A    between atoms: _364  and  _367
REMARK  163  A    between atoms: _367  and  _368
REMARK  164  A    between atoms: _374  and  _376
REMARK  165  A    between atoms: _376  and  _377
REMARK  166  A    between atoms: _376  and  _379
REMARK  167  A    between atoms: _379  and  _380
REMARK  168  A    between atoms: _385  and  _386
REMARK  169  A    between atoms: _388  and  _390
REMARK  170  A    between atoms: _390  and  _391
REMARK  171  A    between atoms: _390  and  _393
REMARK  172  A    between atoms: _393  and  _394
REMARK  173  A    between atoms: _396  and  _398
REMARK  174  A    between atoms: _398  and  _399
REMARK  175  A    between atoms: _398  and  _401
REMARK  176  A    between atoms: _404  and  _406
REMARK  177  A    between atoms: _406  and  _407
REMARK  178  A    between atoms: _406  and  _409
REMARK  179  A    between atoms: _409  and  _410
REMARK  180  A    between atoms: _413  and  _415
REMARK  181  A    between atoms: _415  and  _416
REMARK  182  A    between atoms: _415  and  _418
REMARK  183  A    between atoms: _421  and  _423
REMARK  184  A    between atoms: _423  and  _424
REMARK  185  A    between atoms: _423  and  _426
REMARK  186  A    between atoms: _426  and  _427
REMARK  187  A    between atoms: _430  and  _432
REMARK  188  A    between atoms: _432  and  _433
REMARK  189  A    between atoms: _432  and  _435
REMARK  190  A    between atoms: _435  and  _436
REMARK  191  A    between atoms: _439  and  _441
REMARK  192  A    between atoms: _441  and  _442
REMARK  193  A    between atoms: _441  and  _444
REMARK  194  A    between atoms: _444  and  _445
REMARK  195  A    between atoms: _445  and  _446
REMARK  196  A    between atoms: _446  and  _447
REMARK  197  A    between atoms: _447  and  _448
REMARK  198  A    between atoms: _452  and  _454
REMARK  199  A    between atoms: _454  and  _455
REMARK  200  A    between atoms: _454  and  _457
REMARK  201  A    between atoms: _457  and  _458
REMARK  202  A    between atoms: _463  and  _465
REMARK  203  A    between atoms: _465  and  _466
REMARK  204  A    between atoms: _465  and  _468
REMARK  205  A    between atoms: _468  and  _469
REMARK  206  A    between atoms: _479  and  _481
REMARK  207  A    between atoms: _481  and  _482
REMARK  208  A    between atoms: _484  and  _486
REMARK  209  A    between atoms: _486  and  _487
REMARK  210  A    between atoms: _486  and  _489
REMARK  211  A    between atoms: _489  and  _490
REMARK  212  A    between atoms: _493  and  _495
REMARK  213  A    between atoms: _495  and  _496
REMARK  214  A    between atoms: _495  and  _498
REMARK  215  A    between atoms: _498  and  _499
REMARK  216  A    between atoms: _499  and  _500
REMARK  217  A    between atoms: _500  and  _501
REMARK  218  A    between atoms: _501  and  _502
REMARK  219  A    between atoms: _506  and  _508
REMARK  220  A    between atoms: _508  and  _509
REMARK  221  A    between atoms: _508  and  _511
REMARK                            x       y       z     vdW  Elec       q    Type
REMARK                         _______ _______ _______ _____ _____    ______ ____
ROOT
ATOM      1  O   HOH     1     -26.717  20.997 -27.791  0.00  0.00    +0.000 OA
ENDROOT
TORSDOF 0
REMARK  Name = ../refined-set-2016/3wha/3wha_pocket.pdb
REMARK  221 active torsions:
REMARK  status: ('A' for Active; 'I' for Inactive)
REMARK    1  A    between atoms: _1  and  _3
REMARK    2  A    between atoms: _3  and  _4
REMARK    3  A    between atoms: _3  and  _6
REMARK    4  A    between atoms: _6  and  _7
REMARK    5  A    between atoms: _10  and  _12
REMARK    6  A    between atoms: _12  and  _13
REMARK    7  A    between atoms: _12  and  _15
REMARK    8  A    between atoms: _15  and  _16
REMARK    9  A    between atoms: _19  and  _21
REMARK   10  A    between atoms: _21  and  _22
REMARK   11  A    between atoms: _21  and  _24
REMARK   12  A    between atoms: _24  and  _25
REMARK   13  A    between atoms: _25  and  _26
REMARK   14  A    between atoms: _29  and  _31
REMARK   15  A    between atoms: _31  and  _32
REMARK   16  A    between atoms: _31  and  _34
REMARK   17  A    between atoms: _34  and  _35
REMARK   18  A    between atoms: _38  and  _40
REMARK   19  A    between atoms: _40  and  _41
REMARK   20  A    between atoms: _40  and  _43
REMARK   21  A    between atoms: _43  and  _44
REMARK   22  A    between atoms: _47  and  _49
REMARK   23  A    between atoms: _49  and  _50
REMARK   24  A    between atoms: _49  and  _52
REMARK   25  A    between atoms: _52  and  _53
REMARK   26  A    between atoms: _55  and  _57
REMARK   27  A    between atoms: _57  and  _58
REMARK   28  A    between atoms: _57  and  _60
REMARK   29  A    between atoms: _60  and  _61
REMARK   30  A    between atoms: _66  and  _68
REMARK   31  A    between atoms: _68  and  _69
REMARK   32  A    between atoms: _68  and  _71
REMARK   33  A    between atoms: _71  and  _72
REMARK   34  A    between atoms: _74  and  _76
REMARK   35  A    between atoms: _76  and  _77
REMARK   36  A    between atoms: _76  and  _79
REMARK   37  A    between atoms: _79  and  _80
REMARK   38  A    between atoms: _82  and  _84
REMARK   39  A    between atoms: _84  and  _85
REMARK   40  A    between atoms: _84  and  _87
REMARK   41  A    between atoms: _87  and  _88
REMARK   42  A    between atoms: _91  and  _93
REMARK   43  A    between atoms: _93  and  _94
REMARK   44  A    between atoms: _97  and  _99
REMARK   45  A    between atoms: _99  and  _100
REMARK   46  A    between atoms: _99  and  _102
REMARK   47  A    between atoms: _102  and  _103
REMARK   48  A    between atoms: _106  and  _108
REMARK   49  A    between atoms: _108  and  _109
REMARK   50  A    between atoms: _108  and  _111
REMARK   51  A    between atoms: _111  and  _112
REMARK   52  A    between atoms: _115  and  _117
REMARK   53  A    between atoms: _117  and  _118
REMARK   54  A    between atoms: _117  and  _120
REMARK   55  A    between atoms: _120  and  _121
REMARK   56  A    between atoms: _121  and  _122
REMARK   57  A    between atoms: _122  and  _123
REMARK   58  A    between atoms: _123  and  _124
REMARK   59  A    between atoms: _128  and  _130
REMARK   60  A    between atoms: _130  and  _131
REMARK   61  A    between atoms: _130  and  _133
REMARK   62  A    between atoms: _133  and  _134
REMARK   63  A    between atoms: _137  and  _139
REMARK   64  A    between atoms: _139  and  _140
REMARK   65  A    between atoms: _139  and  _142
REMARK   66  A    between atoms: _142  and  _143
REMARK   67  A    between atoms: _143  and  _144
REMARK   68  A    between atoms: _147  and  _149
REMARK   69  A    between atoms: _149  and  _150
REMARK   70  A    between atoms: _149  and  _152
REMARK   71  A    between atoms: _152  and  _153
REMARK   72  A    between atoms: _156  and  _158
REMARK   73  A    between atoms: _158  and  _159
REMARK   74  A    between atoms: _158  and  _161
REMARK   75  A    between atoms: _164  and  _166
REMARK   76  A    between atoms: _166  and  _167
REMARK   77  A    between atoms: _166  and  _169
REMARK   78  A    between atoms: _169  and  _170
REMARK   79  A    between atoms: _173  and  _175
REMARK   80  A    between atoms: _175  and  _176
REMARK   81  A    between atoms: _175  and  _178
REMARK   82  A    between atoms: _178  and  _179
REMARK   83  A    between atoms: _182  and  _184
REMARK   84  A    between atoms: _184  and  _185
REMARK   85  A    between atoms: _187  and  _189
REMARK   86  A    between atoms: _189  and  _190
REMARK   87  A    between atoms: _189  and  _192
REMARK   88  A    between atoms: _192  and  _193
REMARK   89  A    between atoms: _196  and  _198
REMARK   90  A    between atoms: _198  and  _199
REMARK   91  A    between atoms: _201  and  _203
REMARK   92  A    between atoms: _203  and  _204
REMARK   93  A    between atoms: _203  and  _206
REMARK   94  A    between atoms: _206  and  _207
REMARK   95  A    between atoms: _207  and  _208
REMARK   96  A    between atoms: _210  and  _212
REMARK   97  A    between atoms: _212  and  _213
REMARK   98  A    between atoms: _212  and  _215
REMARK   99  A    between atoms: _215  and  _216
REMARK  100  A    between atoms: _219  and  _221
REMARK  101  A    between atoms: _221  and  _222
REMARK  102  A    between atoms: _221  and  _224
REMARK  103  A    between atoms: _224  and  _225
REMARK  104  A    between atoms: _228  and  _230
REMARK  105  A    between atoms: _230  and  _231
REMARK  106  A    between atoms: _230  and  _233
REMARK  107  A    between atoms: _233  and  _234
REMARK  108  A    between atoms: _237  and  _239
REMARK  109  A    between atoms: _239  and  _240
REMARK  110  A    between atoms: _239  and  _242
REMARK  111  A    between atoms: _242  and  _243
REMARK  112  A    between atoms: _248  and  _250
REMARK  113  A    between atoms: _250  and  _251
REMARK  114  A    between atoms: _250  and  _253
REMARK  115  A    between atoms: _253  and  _254
REMARK  116  A    between atoms: _259  and  _261
REMARK  117  A    between atoms: _261  and  _262
REMARK  118  A    between atoms: _261  and  _264
REMARK  119  A    between atoms: _264  and  _265
REMARK  120  A    between atoms: _268  and  _270
REMARK  121  A    between atoms: _270  and  _271
REMARK  122  A    between atoms: _273  and  _275
REMARK  123  A    between atoms: _275  and  _276
REMARK  124  A    between atoms: _275  and  _278
REMARK  125  A    between atoms: _278  and  _279
REMARK  126  A    between atoms: _282  and  _284
REMARK  127  A    between atoms: _284  and  _285
REMARK  128  A    between atoms: _284  and  _287
REMARK  129  A    between atoms: _287  and  _288
REMARK  130  A    between atoms: _291  and  _293
REMARK  131  A    between atoms: _293  and  _294
REMARK  132  A    between atoms: _297  and  _299
REMARK  133  A    between atoms: _299  and  _300
REMARK  134  A    between atoms: _299  and  _302
REMARK  135  A    between atoms: _302  and  _303
REMARK  136  A    between atoms: _303  and  _304
REMARK  137  A    between atoms: _304  and  _305
REMARK  138  A    between atoms: _305  and  _306
REMARK  139  A    between atoms: _310  and  _312
REMARK  140  A    between atoms: _312  and  _313
REMARK  141  A    between atoms: _312  and  _315
REMARK  142  A    between atoms: _315  and  _316
REMARK  143  A    between atoms: _318  and  _320
REMARK  144  A    between atoms: _320  and  _321
REMARK  145  A    between atoms: _323  and  _325
REMARK  146  A    between atoms: _325  and  _326
REMARK  147  A    between atoms: _325  and  _328
REMARK  148  A    between atoms: _328  and  _329
REMARK  149  A    between atoms: _332  and  _334
REMARK  150  A    between atoms: _334  and  _335
REMARK  151  A    between atoms: _334  and  _337
REMARK  152  A    between atoms: _337  and  _338
REMARK  153  A    between atoms: _344  and  _346
REMARK  154  A    between atoms: _346  and  _347
REMARK  155  A    between atoms: _349  and  _351
REMARK  156  A    between atoms: _351  and  _352
REMARK  157  A    between atoms: _351  and  _354
REMARK  158  A    between atoms: _357  and  _359
REMARK  159  A    between atoms: _359  and  _360
REMARK  160  A    between atoms: _362  and  _364
REMARK  161  A    between atoms: _364  and  _365
REMARK  162  A    between atoms: _364  and  _367
REMARK  163  A    between atoms: _367  and  _368
REMARK  164  A    between atoms: _374  and  _376
REMARK  165  A    between atoms: _376  and  _377
REMARK  166  A    between atoms: _376  and  _379
REMARK  167  A    between atoms: _379  and  _380
REMARK  168  A    between atoms: _385  and  _386
REMARK  169  A    between atoms: _388  and  _390
REMARK  170  A    between atoms: _390  and  _391
REMARK  171  A    between atoms: _390  and  _393
REMARK  172  A    between atoms: _393  and  _394
REMARK  173  A    between atoms: _396  and  _398
REMARK  174  A    between atoms: _398  and  _399
REMARK  175  A    between atoms: _398  and  _401
REMARK  176  A    between atoms: _404  and  _406
REMARK  177  A    between atoms: _406  and  _407
REMARK  178  A    between atoms: _406  and  _409
REMARK  179  A    between atoms: _409  and  _410
REMARK  180  A    between atoms: _413  and  _415
REMARK  181  A    between atoms: _415  and  _416
REMARK  182  A    between atoms: _415  and  _418
REMARK  183  A    between atoms: _421  and  _423
REMARK  184  A    between atoms: _423  and  _424
REMARK  185  A    between atoms: _423  and  _426
REMARK  186  A    between atoms: _426  and  _427
REMARK  187  A    between atoms: _430  and  _432
REMARK  188  A    between atoms: _432  and  _433
REMARK  189  A    between atoms: _432  and  _435
REMARK  190  A    between atoms: _435  and  _436
REMARK  191  A    between atoms: _439  and  _441
REMARK  192  A    between atoms: _441  and  _442
REMARK  193  A    between atoms: _441  and  _444
REMARK  194  A    between atoms: _444  and  _445
REMARK  195  A    between atoms: _445  and  _446
REMARK  196  A    between atoms: _446  and  _447
REMARK  197  A    between atoms: _447  and  _448
REMARK  198  A    between atoms: _452  and  _454
REMARK  199  A    between atoms: _454  and  _455
REMARK  200  A    between atoms: _454  and  _457
REMARK  201  A    between atoms: _457  and  _458
REMARK  202  A    between atoms: _463  and  _465
REMARK  203  A    between atoms: _465  and  _466
REMARK  204  A    between atoms: _465  and  _468
REMARK  205  A    between atoms: _468  and  _469
REMARK  206  A    between atoms: _479  and  _481
REMARK  207  A    between atoms: _481  and  _482
REMARK  208  A    between atoms: _484  and  _486
REMARK  209  A    between atoms: _486  and  _487
REMARK  210  A    between atoms: _486  and  _489
REMARK  211  A    between atoms: _489  and  _490
REMARK  212  A    between atoms: _493  and  _495
REMARK  213  A    between atoms: _495  and  _496
REMARK  214  A    between atoms: _495  and  _498
REMARK  215  A    between atoms: _498  and  _499
REMARK  216  A    between atoms: _499  and  _500
REMARK  217  A    between atoms: _500  and  _501
REMARK  218  A    between atoms: _501  and  _502
REMARK  219  A    between atoms: _506  and  _508
REMARK  220  A    between atoms: _508  and  _509
REMARK  221  A    between atoms: _508  and  _511
REMARK                            x       y       z     vdW  Elec       q    Type
REMARK                         _______ _______ _______ _____ _____    ______ ____
ROOT
ATOM      1  O   HOH     1     -32.127  27.649 -22.078  0.00  0.00    +0.000 OA
ENDROOT
TORSDOF 0
REMARK  Name = ../refined-set-2016/3wha/3wha_pocket.pdb
REMARK  221 active torsions:
REMARK  status: ('A' for Active; 'I' for Inactive)
REMARK    1  A    between atoms: _1  and  _3
REMARK    2  A    between atoms: _3  and  _4
REMARK    3  A    between atoms: _3  and  _6
REMARK    4  A    between atoms: _6  and  _7
REMARK    5  A    between atoms: _10  and  _12
REMARK    6  A    between atoms: _12  and  _13
REMARK    7  A    between atoms: _12  and  _15
REMARK    8  A    between atoms: _15  and  _16
REMARK    9  A    between atoms: _19  and  _21
REMARK   10  A    between atoms: _21  and  _22
REMARK   11  A    between atoms: _21  and  _24
REMARK   12  A    between atoms: _24  and  _25
REMARK   13  A    between atoms: _25  and  _26
REMARK   14  A    between atoms: _29  and  _31
REMARK   15  A    between atoms: _31  and  _32
REMARK   16  A    between atoms: _31  and  _34
REMARK   17  A    between atoms: _34  and  _35
REMARK   18  A    between atoms: _38  and  _40
REMARK   19  A    between atoms: _40  and  _41
REMARK   20  A    between atoms: _40  and  _43
REMARK   21  A    between atoms: _43  and  _44
REMARK   22  A    between atoms: _47  and  _49
REMARK   23  A    between atoms: _49  and  _50
REMARK   24  A    between atoms: _49  and  _52
REMARK   25  A    between atoms: _52  and  _53
REMARK   26  A    between atoms: _55  and  _57
REMARK   27  A    between atoms: _57  and  _58
REMARK   28  A    between atoms: _57  and  _60
REMARK   29  A    between atoms: _60  and  _61
REMARK   30  A    between atoms: _66  and  _68
REMARK   31  A    between atoms: _68  and  _69
REMARK   32  A    between atoms: _68  and  _71
REMARK   33  A    between atoms: _71  and  _72
REMARK   34  A    between atoms: _74  and  _76
REMARK   35  A    between atoms: _76  and  _77
REMARK   36  A    between atoms: _76  and  _79
REMARK   37  A    between atoms: _79  and  _80
REMARK   38  A    between atoms: _82  and  _84
REMARK   39  A    between atoms: _84  and  _85
REMARK   40  A    between atoms: _84  and  _87
REMARK   41  A    between atoms: _87  and  _88
REMARK   42  A    between atoms: _91  and  _93
REMARK   43  A    between atoms: _93  and  _94
REMARK   44  A    between atoms: _97  and  _99
REMARK   45  A    between atoms: _99  and  _100
REMARK   46  A    between atoms: _99  and  _102
REMARK   47  A    between atoms: _102  and  _103
REMARK   48  A    between atoms: _106  and  _108
REMARK   49  A    between atoms: _108  and  _109
REMARK   50  A    between atoms: _108  and  _111
REMARK   51  A    between atoms: _111  and  _112
REMARK   52  A    between atoms: _115  and  _117
REMARK   53  A    between atoms: _117  and  _118
REMARK   54  A    between atoms: _117  and  _120
REMARK   55  A    between atoms: _120  and  _121
REMARK   56  A    between atoms: _121  and  _122
REMARK   57  A    between atoms: _122  and  _123
REMARK   58  A    between atoms: _123  and  _124
REMARK   59  A    between atoms: _128  and  _130
REMARK   60  A    between atoms: _130  and  _131
REMARK   61  A    between atoms: _130  and  _133
REMARK   62  A    between atoms: _133  and  _134
REMARK   63  A    between atoms: _137  and  _139
REMARK   64  A    between atoms: _139  and  _140
REMARK   65  A    between atoms: _139  and  _142
REMARK   66  A    between atoms: _142  and  _143
REMARK   67  A    between atoms: _143  and  _144
REMARK   68  A    between atoms: _147  and  _149
REMARK   69  A    between atoms: _149  and  _150
REMARK   70  A    between atoms: _149  and  _152
REMARK   71  A    between atoms: _152  and  _153
REMARK   72  A    between atoms: _156  and  _158
REMARK   73  A    between atoms: _158  and  _159
REMARK   74  A    between atoms: _158  and  _161
REMARK   75  A    between atoms: _164  and  _166
REMARK   76  A    between atoms: _166  and  _167
REMARK   77  A    between atoms: _166  and  _169
REMARK   78  A    between atoms: _169  and  _170
REMARK   79  A    between atoms: _173  and  _175
REMARK   80  A    between atoms: _175  and  _176
REMARK   81  A    between atoms: _175  and  _178
REMARK   82  A    between atoms: _178  and  _179
REMARK   83  A    between atoms: _182  and  _184
REMARK   84  A    between atoms: _184  and  _185
REMARK   85  A    between atoms: _187  and  _189
REMARK   86  A    between atoms: _189  and  _190
REMARK   87  A    between atoms: _189  and  _192
REMARK   88  A    between atoms: _192  and  _193
REMARK   89  A    between atoms: _196  and  _198
REMARK   90  A    between atoms: _198  and  _199
REMARK   91  A    between atoms: _201  and  _203
REMARK   92  A    between atoms: _203  and  _204
REMARK   93  A    between atoms: _203  and  _206
REMARK   94  A    between atoms: _206  and  _207
REMARK   95  A    between atoms: _207  and  _208
REMARK   96  A    between atoms: _210  and  _212
REMARK   97  A    between atoms: _212  and  _213
REMARK   98  A    between atoms: _212  and  _215
REMARK   99  A    between atoms: _215  and  _216
REMARK  100  A    between atoms: _219  and  _221
REMARK  101  A    between atoms: _221  and  _222
REMARK  102  A    between atoms: _221  and  _224
REMARK  103  A    between atoms: _224  and  _225
REMARK  104  A    between atoms: _228  and  _230
REMARK  105  A    between atoms: _230  and  _231
REMARK  106  A    between atoms: _230  and  _233
REMARK  107  A    between atoms: _233  and  _234
REMARK  108  A    between atoms: _237  and  _239
REMARK  109  A    between atoms: _239  and  _240
REMARK  110  A    between atoms: _239  and  _242
REMARK  111  A    between atoms: _242  and  _243
REMARK  112  A    between atoms: _248  and  _250
REMARK  113  A    between atoms: _250  and  _251
REMARK  114  A    between atoms: _250  and  _253
REMARK  115  A    between atoms: _253  and  _254
REMARK  116  A    between atoms: _259  and  _261
REMARK  117  A    between atoms: _261  and  _262
REMARK  118  A    between atoms: _261  and  _264
REMARK  119  A    between atoms: _264  and  _265
REMARK  120  A    between atoms: _268  and  _270
REMARK  121  A    between atoms: _270  and  _271
REMARK  122  A    between atoms: _273  and  _275
REMARK  123  A    between atoms: _275  and  _276
REMARK  124  A    between atoms: _275  and  _278
REMARK  125  A    between atoms: _278  and  _279
REMARK  126  A    between atoms: _282  and  _284
REMARK  127  A    between atoms: _284  and  _285
REMARK  128  A    between atoms: _284  and  _287
REMARK  129  A    between atoms: _287  and  _288
REMARK  130  A    between atoms: _291  and  _293
REMARK  131  A    between atoms: _293  and  _294
REMARK  132  A    between atoms: _297  and  _299
REMARK  133  A    between atoms: _299  and  _300
REMARK  134  A    between atoms: _299  and  _302
REMARK  135  A    between atoms: _302  and  _303
REMARK  136  A    between atoms: _303  and  _304
REMARK  137  A    between atoms: _304  and  _305
REMARK  138  A    between atoms: _305  and  _306
REMARK  139  A    between atoms: _310  and  _312
REMARK  140  A    between atoms: _312  and  _313
REMARK  141  A    between atoms: _312  and  _315
REMARK  142  A    between atoms: _315  and  _316
REMARK  143  A    between atoms: _318  and  _320
REMARK  144  A    between atoms: _320  and  _321
REMARK  145  A    between atoms: _323  and  _325
REMARK  146  A    between atoms: _325  and  _326
REMARK  147  A    between atoms: _325  and  _328
REMARK  148  A    between atoms: _328  and  _329
REMARK  149  A    between atoms: _332  and  _334
REMARK  150  A    between atoms: _334  and  _335
REMARK  151  A    between atoms: _334  and  _337
REMARK  152  A    between atoms: _337  and  _338
REMARK  153  A    between atoms: _344  and  _346
REMARK  154  A    between atoms: _346  and  _347
REMARK  155  A    between atoms: _349  and  _351
REMARK  156  A    between atoms: _351  and  _352
REMARK  157  A    between atoms: _351  and  _354
REMARK  158  A    between atoms: _357  and  _359
REMARK  159  A    between atoms: _359  and  _360
REMARK  160  A    between atoms: _362  and  _364
REMARK  161  A    between atoms: _364  and  _365
REMARK  162  A    between atoms: _364  and  _367
REMARK  163  A    between atoms: _367  and  _368
REMARK  164  A    between atoms: _374  and  _376
REMARK  165  A    between atoms: _376  and  _377
REMARK  166  A    between atoms: _376  and  _379
REMARK  167  A    between atoms: _379  and  _380
REMARK  168  A    between atoms: _385  and  _386
REMARK  169  A    between atoms: _388  and  _390
REMARK  170  A    between atoms: _390  and  _391
REMARK  171  A    between atoms: _390  and  _393
REMARK  172  A    between atoms: _393  and  _394
REMARK  173  A    between atoms: _396  and  _398
REMARK  174  A    between atoms: _398  and  _399
REMARK  175  A    between atoms: _398  and  _401
REMARK  176  A    between atoms: _404  and  _406
REMARK  177  A    between atoms: _406  and  _407
REMARK  178  A    between atoms: _406  and  _409
REMARK  179  A    between atoms: _409  and  _410
REMARK  180  A    between atoms: _413  and  _415
REMARK  181  A    between atoms: _415  and  _416
REMARK  182  A    between atoms: _415  and  _418
REMARK  183  A    between atoms: _421  and  _423
REMARK  184  A    between atoms: _423  and  _424
REMARK  185  A    between atoms: _423  and  _426
REMARK  186  A    between atoms: _426  and  _427
REMARK  187  A    between atoms: _430  and  _432
REMARK  188  A    between atoms: _432  and  _433
REMARK  189  A    between atoms: _432  and  _435
REMARK  190  A    between atoms: _435  and  _436
REMARK  191  A    between atoms: _439  and  _441
REMARK  192  A    between atoms: _441  and  _442
REMARK  193  A    between atoms: _441  and  _444
REMARK  194  A    between atoms: _444  and  _445
REMARK  195  A    between atoms: _445  and  _446
REMARK  196  A    between atoms: _446  and  _447
REMARK  197  A    between atoms: _447  and  _448
REMARK  198  A    between atoms: _452  and  _454
REMARK  199  A    between atoms: _454  and  _455
REMARK  200  A    between atoms: _454  and  _457
REMARK  201  A    between atoms: _457  and  _458
REMARK  202  A    between atoms: _463  and  _465
REMARK  203  A    between atoms: _465  and  _466
REMARK  204  A    between atoms: _465  and  _468
REMARK  205  A    between atoms: _468  and  _469
REMARK  206  A    between atoms: _479  and  _481
REMARK  207  A    between atoms: _481  and  _482
REMARK  208  A    between atoms: _484  and  _486
REMARK  209  A    between atoms: _486  and  _487
REMARK  210  A    between atoms: _486  and  _489
REMARK  211  A    between atoms: _489  and  _490
REMARK  212  A    between atoms: _493  and  _495
REMARK  213  A    between atoms: _495  and  _496
REMARK  214  A    between atoms: _495  and  _498
REMARK  215  A    between atoms: _498  and  _499
REMARK  216  A    between atoms: _499  and  _500
REMARK  217  A    between atoms: _500  and  _501
REMARK  218  A    between atoms: _501  and  _502
REMARK  219  A    between atoms: _506  and  _508
REMARK  220  A    between atoms: _508  and  _509
REMARK  221  A    between atoms: _508  and  _511
REMARK                            x       y       z     vdW  Elec       q    Type
REMARK                         _______ _______ _______ _____ _____    ______ ____
ROOT
ATOM      1  O   HOH     1     -30.895  24.606 -25.063  0.00  0.00    +0.000 OA
ENDROOT
TORSDOF 0
REMARK  Name = ../refined-set-2016/3wha/3wha_pocket.pdb
REMARK  221 active torsions:
REMARK  status: ('A' for Active; 'I' for Inactive)
REMARK    1  A    between atoms: _1  and  _3
REMARK    2  A    between atoms: _3  and  _4
REMARK    3  A    between atoms: _3  and  _6
REMARK    4  A    between atoms: _6  and  _7
REMARK    5  A    between atoms: _10  and  _12
REMARK    6  A    between atoms: _12  and  _13
REMARK    7  A    between atoms: _12  and  _15
REMARK    8  A    between atoms: _15  and  _16
REMARK    9  A    between atoms: _19  and  _21
REMARK   10  A    between atoms: _21  and  _22
REMARK   11  A    between atoms: _21  and  _24
REMARK   12  A    between atoms: _24  and  _25
REMARK   13  A    between atoms: _25  and  _26
REMARK   14  A    between atoms: _29  and  _31
REMARK   15  A    between atoms: _31  and  _32
REMARK   16  A    between atoms: _31  and  _34
REMARK   17  A    between atoms: _34  and  _35
REMARK   18  A    between atoms: _38  and  _40
REMARK   19  A    between atoms: _40  and  _41
REMARK   20  A    between atoms: _40  and  _43
REMARK   21  A    between atoms: _43  and  _44
REMARK   22  A    between atoms: _47  and  _49
REMARK   23  A    between atoms: _49  and  _50
REMARK   24  A    between atoms: _49  and  _52
REMARK   25  A    between atoms: _52  and  _53
REMARK   26  A    between atoms: _55  and  _57
REMARK   27  A    between atoms: _57  and  _58
REMARK   28  A    between atoms: _57  and  _60
REMARK   29  A    between atoms: _60  and  _61
REMARK   30  A    between atoms: _66  and  _68
REMARK   31  A    between atoms: _68  and  _69
REMARK   32  A    between atoms: _68  and  _71
REMARK   33  A    between atoms: _71  and  _72
REMARK   34  A    between atoms: _74  and  _76
REMARK   35  A    between atoms: _76  and  _77
REMARK   36  A    between atoms: _76  and  _79
REMARK   37  A    between atoms: _79  and  _80
REMARK   38  A    between atoms: _82  and  _84
REMARK   39  A    between atoms: _84  and  _85
REMARK   40  A    between atoms: _84  and  _87
REMARK   41  A    between atoms: _87  and  _88
REMARK   42  A    between atoms: _91  and  _93
REMARK   43  A    between atoms: _93  and  _94
REMARK   44  A    between atoms: _97  and  _99
REMARK   45  A    between atoms: _99  and  _100
REMARK   46  A    between atoms: _99  and  _102
REMARK   47  A    between atoms: _102  and  _103
REMARK   48  A    between atoms: _106  and  _108
REMARK   49  A    between atoms: _108  and  _109
REMARK   50  A    between atoms: _108  and  _111
REMARK   51  A    between atoms: _111  and  _112
REMARK   52  A    between atoms: _115  and  _117
REMARK   53  A    between atoms: _117  and  _118
REMARK   54  A    between atoms: _117  and  _120
REMARK   55  A    between atoms: _120  and  _121
REMARK   56  A    between atoms: _121  and  _122
REMARK   57  A    between atoms: _122  and  _123
REMARK   58  A    between atoms: _123  and  _124
REMARK   59  A    between atoms: _128  and  _130
REMARK   60  A    between atoms: _130  and  _131
REMARK   61  A    between atoms: _130  and  _133
REMARK   62  A    between atoms: _133  and  _134
REMARK   63  A    between atoms: _137  and  _139
REMARK   64  A    between atoms: _139  and  _140
REMARK   65  A    between atoms: _139  and  _142
REMARK   66  A    between atoms: _142  and  _143
REMARK   67  A    between atoms: _143  and  _144
REMARK   68  A    between atoms: _147  and  _149
REMARK   69  A    between atoms: _149  and  _150
REMARK   70  A    between atoms: _149  and  _152
REMARK   71  A    between atoms: _152  and  _153
REMARK   72  A    between atoms: _156  and  _158
REMARK   73  A    between atoms: _158  and  _159
REMARK   74  A    between atoms: _158  and  _161
REMARK   75  A    between atoms: _164  and  _166
REMARK   76  A    between atoms: _166  and  _167
REMARK   77  A    between atoms: _166  and  _169
REMARK   78  A    between atoms: _169  and  _170
REMARK   79  A    between atoms: _173  and  _175
REMARK   80  A    between atoms: _175  and  _176
REMARK   81  A    between atoms: _175  and  _178
REMARK   82  A    between atoms: _178  and  _179
REMARK   83  A    between atoms: _182  and  _184
REMARK   84  A    between atoms: _184  and  _185
REMARK   85  A    between atoms: _187  and  _189
REMARK   86  A    between atoms: _189  and  _190
REMARK   87  A    between atoms: _189  and  _192
REMARK   88  A    between atoms: _192  and  _193
REMARK   89  A    between atoms: _196  and  _198
REMARK   90  A    between atoms: _198  and  _199
REMARK   91  A    between atoms: _201  and  _203
REMARK   92  A    between atoms: _203  and  _204
REMARK   93  A    between atoms: _203  and  _206
REMARK   94  A    between atoms: _206  and  _207
REMARK   95  A    between atoms: _207  and  _208
REMARK   96  A    between atoms: _210  and  _212
REMARK   97  A    between atoms: _212  and  _213
REMARK   98  A    between atoms: _212  and  _215
REMARK   99  A    between atoms: _215  and  _216
REMARK  100  A    between atoms: _219  and  _221
REMARK  101  A    between atoms: _221  and  _222
REMARK  102  A    between atoms: _221  and  _224
REMARK  103  A    between atoms: _224  and  _225
REMARK  104  A    between atoms: _228  and  _230
REMARK  105  A    between atoms: _230  and  _231
REMARK  106  A    between atoms: _230  and  _233
REMARK  107  A    between atoms: _233  and  _234
REMARK  108  A    between atoms: _237  and  _239
REMARK  109  A    between atoms: _239  and  _240
REMARK  110  A    between atoms: _239  and  _242
REMARK  111  A    between atoms: _242  and  _243
REMARK  112  A    between atoms: _248  and  _250
REMARK  113  A    between atoms: _250  and  _251
REMARK  114  A    between atoms: _250  and  _253
REMARK  115  A    between atoms: _253  and  _254
REMARK  116  A    between atoms: _259  and  _261
REMARK  117  A    between atoms: _261  and  _262
REMARK  118  A    between atoms: _261  and  _264
REMARK  119  A    between atoms: _264  and  _265
REMARK  120  A    between atoms: _268  and  _270
REMARK  121  A    between atoms: _270  and  _271
REMARK  122  A    between atoms: _273  and  _275
REMARK  123  A    between atoms: _275  and  _276
REMARK  124  A    between atoms: _275  and  _278
REMARK  125  A    between atoms: _278  and  _279
REMARK  126  A    between atoms: _282  and  _284
REMARK  127  A    between atoms: _284  and  _285
REMARK  128  A    between atoms: _284  and  _287
REMARK  129  A    between atoms: _287  and  _288
REMARK  130  A    between atoms: _291  and  _293
REMARK  131  A    between atoms: _293  and  _294
REMARK  132  A    between atoms: _297  and  _299
REMARK  133  A    between atoms: _299  and  _300
REMARK  134  A    between atoms: _299  and  _302
REMARK  135  A    between atoms: _302  and  _303
REMARK  136  A    between atoms: _303  and  _304
REMARK  137  A    between atoms: _304  and  _305
REMARK  138  A    between atoms: _305  and  _306
REMARK  139  A    between atoms: _310  and  _312
REMARK  140  A    between atoms: _312  and  _313
REMARK  141  A    between atoms: _312  and  _315
REMARK  142  A    between atoms: _315  and  _316
REMARK  143  A    between atoms: _318  and  _320
REMARK  144  A    between atoms: _320  and  _321
REMARK  145  A    between atoms: _323  and  _325
REMARK  146  A    between atoms: _325  and  _326
REMARK  147  A    between atoms: _325  and  _328
REMARK  148  A    between atoms: _328  and  _329
REMARK  149  A    between atoms: _332  and  _334
REMARK  150  A    between atoms: _334  and  _335
REMARK  151  A    between atoms: _334  and  _337
REMARK  152  A    between atoms: _337  and  _338
REMARK  153  A    between atoms: _344  and  _346
REMARK  154  A    between atoms: _346  and  _347
REMARK  155  A    between atoms: _349  and  _351
REMARK  156  A    between atoms: _351  and  _352
REMARK  157  A    between atoms: _351  and  _354
REMARK  158  A    between atoms: _357  and  _359
REMARK  159  A    between atoms: _359  and  _360
REMARK  160  A    between atoms: _362  and  _364
REMARK  161  A    between atoms: _364  and  _365
REMARK  162  A    between atoms: _364  and  _367
REMARK  163  A    between atoms: _367  and  _368
REMARK  164  A    between atoms: _374  and  _376
REMARK  165  A    between atoms: _376  and  _377
REMARK  166  A    between atoms: _376  and  _379
REMARK  167  A    between atoms: _379  and  _380
REMARK  168  A    between atoms: _385  and  _386
REMARK  169  A    between atoms: _388  and  _390
REMARK  170  A    between atoms: _390  and  _391
REMARK  171  A    between atoms: _390  and  _393
REMARK  172  A    between atoms: _393  and  _394
REMARK  173  A    between atoms: _396  and  _398
REMARK  174  A    between atoms: _398  and  _399
REMARK  175  A    between atoms: _398  and  _401
REMARK  176  A    between atoms: _404  and  _406
REMARK  177  A    between atoms: _406  and  _407
REMARK  178  A    between atoms: _406  and  _409
REMARK  179  A    between atoms: _409  and  _410
REMARK  180  A    between atoms: _413  and  _415
REMARK  181  A    between atoms: _415  and  _416
REMARK  182  A    between atoms: _415  and  _418
REMARK  183  A    between atoms: _421  and  _423
REMARK  184  A    between atoms: _423  and  _424
REMARK  185  A    between atoms: _423  and  _426
REMARK  186  A    between atoms: _426  and  _427
REMARK  187  A    between atoms: _430  and  _432
REMARK  188  A    between atoms: _432  and  _433
REMARK  189  A    between atoms: _432  and  _435
REMARK  190  A    between atoms: _435  and  _436
REMARK  191  A    between atoms: _439  and  _441
REMARK  192  A    between atoms: _441  and  _442
REMARK  193  A    between atoms: _441  and  _444
REMARK  194  A    between atoms: _444  and  _445
REMARK  195  A    between atoms: _445  and  _446
REMARK  196  A    between atoms: _446  and  _447
REMARK  197  A    between atoms: _447  and  _448
REMARK  198  A    between atoms: _452  and  _454
REMARK  199  A    between atoms: _454  and  _455
REMARK  200  A    between atoms: _454  and  _457
REMARK  201  A    between atoms: _457  and  _458
REMARK  202  A    between atoms: _463  and  _465
REMARK  203  A    between atoms: _465  and  _466
REMARK  204  A    between atoms: _465  and  _468
REMARK  205  A    between atoms: _468  and  _469
REMARK  206  A    between atoms: _479  and  _481
REMARK  207  A    between atoms: _481  and  _482
REMARK  208  A    between atoms: _484  and  _486
REMARK  209  A    between atoms: _486  and  _487
REMARK  210  A    between atoms: _486  and  _489
REMARK  211  A    between atoms: _489  and  _490
REMARK  212  A    between atoms: _493  and  _495
REMARK  213  A    between atoms: _495  and  _496
REMARK  214  A    between atoms: _495  and  _498
REMARK  215  A    between atoms: _498  and  _499
REMARK  216  A    between atoms: _499  and  _500
REMARK  217  A    between atoms: _500  and  _501
REMARK  218  A    between atoms: _501  and  _502
REMARK  219  A    between atoms: _506  and  _508
REMARK  220  A    between atoms: _508  and  _509
REMARK  221  A    between atoms: _508  and  _511
REMARK                            x       y       z     vdW  Elec       q    Type
REMARK                         _______ _______ _______ _____ _____    ______ ____
ROOT
ATOM      1  O   HOH     1     -28.167  23.341 -27.615  0.00  0.00    +0.000 OA
ENDROOT
TORSDOF 0
REMARK  Name = ../refined-set-2016/3wha/3wha_pocket.pdb
REMARK  221 active torsions:
REMARK  status: ('A' for Active; 'I' for Inactive)
REMARK    1  A    between atoms: _1  and  _3
REMARK    2  A    between atoms: _3  and  _4
REMARK    3  A    between atoms: _3  and  _6
REMARK    4  A    between atoms: _6  and  _7
REMARK    5  A    between atoms: _10  and  _12
REMARK    6  A    between atoms: _12  and  _13
REMARK    7  A    between atoms: _12  and  _15
REMARK    8  A    between atoms: _15  and  _16
REMARK    9  A    between atoms: _19  and  _21
REMARK   10  A    between atoms: _21  and  _22
REMARK   11  A    between atoms: _21  and  _24
REMARK   12  A    between atoms: _24  and  _25
REMARK   13  A    between atoms: _25  and  _26
REMARK   14  A    between atoms: _29  and  _31
REMARK   15  A    between atoms: _31  and  _32
REMARK   16  A    between atoms: _31  and  _34
REMARK   17  A    between atoms: _34  and  _35
REMARK   18  A    between atoms: _38  and  _40
REMARK   19  A    between atoms: _40  and  _41
REMARK   20  A    between atoms: _40  and  _43
REMARK   21  A    between atoms: _43  and  _44
REMARK   22  A    between atoms: _47  and  _49
REMARK   23  A    between atoms: _49  and  _50
REMARK   24  A    between atoms: _49  and  _52
REMARK   25  A    between atoms: _52  and  _53
REMARK   26  A    between atoms: _55  and  _57
REMARK   27  A    between atoms: _57  and  _58
REMARK   28  A    between atoms: _57  and  _60
REMARK   29  A    between atoms: _60  and  _61
REMARK   30  A    between atoms: _66  and  _68
REMARK   31  A    between atoms: _68  and  _69
REMARK   32  A    between atoms: _68  and  _71
REMARK   33  A    between atoms: _71  and  _72
REMARK   34  A    between atoms: _74  and  _76
REMARK   35  A    between atoms: _76  and  _77
REMARK   36  A    between atoms: _76  and  _79
REMARK   37  A    between atoms: _79  and  _80
REMARK   38  A    between atoms: _82  and  _84
REMARK   39  A    between atoms: _84  and  _85
REMARK   40  A    between atoms: _84  and  _87
REMARK   41  A    between atoms: _87  and  _88
REMARK   42  A    between atoms: _91  and  _93
REMARK   43  A    between atoms: _93  and  _94
REMARK   44  A    between atoms: _97  and  _99
REMARK   45  A    between atoms: _99  and  _100
REMARK   46  A    between atoms: _99  and  _102
REMARK   47  A    between atoms: _102  and  _103
REMARK   48  A    between atoms: _106  and  _108
REMARK   49  A    between atoms: _108  and  _109
REMARK   50  A    between atoms: _108  and  _111
REMARK   51  A    between atoms: _111  and  _112
REMARK   52  A    between atoms: _115  and  _117
REMARK   53  A    between atoms: _117  and  _118
REMARK   54  A    between atoms: _117  and  _120
REMARK   55  A    between atoms: _120  and  _121
REMARK   56  A    between atoms: _121  and  _122
REMARK   57  A    between atoms: _122  and  _123
REMARK   58  A    between atoms: _123  and  _124
REMARK   59  A    between atoms: _128  and  _130
REMARK   60  A    between atoms: _130  and  _131
REMARK   61  A    between atoms: _130  and  _133
REMARK   62  A    between atoms: _133  and  _134
REMARK   63  A    between atoms: _137  and  _139
REMARK   64  A    between atoms: _139  and  _140
REMARK   65  A    between atoms: _139  and  _142
REMARK   66  A    between atoms: _142  and  _143
REMARK   67  A    between atoms: _143  and  _144
REMARK   68  A    between atoms: _147  and  _149
REMARK   69  A    between atoms: _149  and  _150
REMARK   70  A    between atoms: _149  and  _152
REMARK   71  A    between atoms: _152  and  _153
REMARK   72  A    between atoms: _156  and  _158
REMARK   73  A    between atoms: _158  and  _159
REMARK   74  A    between atoms: _158  and  _161
REMARK   75  A    between atoms: _164  and  _166
REMARK   76  A    between atoms: _166  and  _167
REMARK   77  A    between atoms: _166  and  _169
REMARK   78  A    between atoms: _169  and  _170
REMARK   79  A    between atoms: _173  and  _175
REMARK   80  A    between atoms: _175  and  _176
REMARK   81  A    between atoms: _175  and  _178
REMARK   82  A    between atoms: _178  and  _179
REMARK   83  A    between atoms: _182  and  _184
REMARK   84  A    between atoms: _184  and  _185
REMARK   85  A    between atoms: _187  and  _189
REMARK   86  A    between atoms: _189  and  _190
REMARK   87  A    between atoms: _189  and  _192
REMARK   88  A    between atoms: _192  and  _193
REMARK   89  A    between atoms: _196  and  _198
REMARK   90  A    between atoms: _198  and  _199
REMARK   91  A    between atoms: _201  and  _203
REMARK   92  A    between atoms: _203  and  _204
REMARK   93  A    between atoms: _203  and  _206
REMARK   94  A    between atoms: _206  and  _207
REMARK   95  A    between atoms: _207  and  _208
REMARK   96  A    between atoms: _210  and  _212
REMARK   97  A    between atoms: _212  and  _213
REMARK   98  A    between atoms: _212  and  _215
REMARK   99  A    between atoms: _215  and  _216
REMARK  100  A    between atoms: _219  and  _221
REMARK  101  A    between atoms: _221  and  _222
REMARK  102  A    between atoms: _221  and  _224
REMARK  103  A    between atoms: _224  and  _225
REMARK  104  A    between atoms: _228  and  _230
REMARK  105  A    between atoms: _230  and  _231
REMARK  106  A    between atoms: _230  and  _233
REMARK  107  A    between atoms: _233  and  _234
REMARK  108  A    between atoms: _237  and  _239
REMARK  109  A    between atoms: _239  and  _240
REMARK  110  A    between atoms: _239  and  _242
REMARK  111  A    between atoms: _242  and  _243
REMARK  112  A    between atoms: _248  and  _250
REMARK  113  A    between atoms: _250  and  _251
REMARK  114  A    between atoms: _250  and  _253
REMARK  115  A    between atoms: _253  and  _254
REMARK  116  A    between atoms: _259  and  _261
REMARK  117  A    between atoms: _261  and  _262
REMARK  118  A    between atoms: _261  and  _264
REMARK  119  A    between atoms: _264  and  _265
REMARK  120  A    between atoms: _268  and  _270
REMARK  121  A    between atoms: _270  and  _271
REMARK  122  A    between atoms: _273  and  _275
REMARK  123  A    between atoms: _275  and  _276
REMARK  124  A    between atoms: _275  and  _278
REMARK  125  A    between atoms: _278  and  _279
REMARK  126  A    between atoms: _282  and  _284
REMARK  127  A    between atoms: _284  and  _285
REMARK  128  A    between atoms: _284  and  _287
REMARK  129  A    between atoms: _287  and  _288
REMARK  130  A    between atoms: _291  and  _293
REMARK  131  A    between atoms: _293  and  _294
REMARK  132  A    between atoms: _297  and  _299
REMARK  133  A    between atoms: _299  and  _300
REMARK  134  A    between atoms: _299  and  _302
REMARK  135  A    between atoms: _302  and  _303
REMARK  136  A    between atoms: _303  and  _304
REMARK  137  A    between atoms: _304  and  _305
REMARK  138  A    between atoms: _305  and  _306
REMARK  139  A    between atoms: _310  and  _312
REMARK  140  A    between atoms: _312  and  _313
REMARK  141  A    between atoms: _312  and  _315
REMARK  142  A    between atoms: _315  and  _316
REMARK  143  A    between atoms: _318  and  _320
REMARK  144  A    between atoms: _320  and  _321
REMARK  145  A    between atoms: _323  and  _325
REMARK  146  A    between atoms: _325  and  _326
REMARK  147  A    between atoms: _325  and  _328
REMARK  148  A    between atoms: _328  and  _329
REMARK  149  A    between atoms: _332  and  _334
REMARK  150  A    between atoms: _334  and  _335
REMARK  151  A    between atoms: _334  and  _337
REMARK  152  A    between atoms: _337  and  _338
REMARK  153  A    between atoms: _344  and  _346
REMARK  154  A    between atoms: _346  and  _347
REMARK  155  A    between atoms: _349  and  _351
REMARK  156  A    between atoms: _351  and  _352
REMARK  157  A    between atoms: _351  and  _354
REMARK  158  A    between atoms: _357  and  _359
REMARK  159  A    between atoms: _359  and  _360
REMARK  160  A    between atoms: _362  and  _364
REMARK  161  A    between atoms: _364  and  _365
REMARK  162  A    between atoms: _364  and  _367
REMARK  163  A    between atoms: _367  and  _368
REMARK  164  A    between atoms: _374  and  _376
REMARK  165  A    between atoms: _376  and  _377
REMARK  166  A    between atoms: _376  and  _379
REMARK  167  A    between atoms: _379  and  _380
REMARK  168  A    between atoms: _385  and  _386
REMARK  169  A    between atoms: _388  and  _390
REMARK  170  A    between atoms: _390  and  _391
REMARK  171  A    between atoms: _390  and  _393
REMARK  172  A    between atoms: _393  and  _394
REMARK  173  A    between atoms: _396  and  _398
REMARK  174  A    between atoms: _398  and  _399
REMARK  175  A    between atoms: _398  and  _401
REMARK  176  A    between atoms: _404  and  _406
REMARK  177  A    between atoms: _406  and  _407
REMARK  178  A    between atoms: _406  and  _409
REMARK  179  A    between atoms: _409  and  _410
REMARK  180  A    between atoms: _413  and  _415
REMARK  181  A    between atoms: _415  and  _416
REMARK  182  A    between atoms: _415  and  _418
REMARK  183  A    between atoms: _421  and  _423
REMARK  184  A    between atoms: _423  and  _424
REMARK  185  A    between atoms: _423  and  _426
REMARK  186  A    between atoms: _426  and  _427
REMARK  187  A    between atoms: _430  and  _432
REMARK  188  A    between atoms: _432  and  _433
REMARK  189  A    between atoms: _432  and  _435
REMARK  190  A    between atoms: _435  and  _436
REMARK  191  A    between atoms: _439  and  _441
REMARK  192  A    between atoms: _441  and  _442
REMARK  193  A    between atoms: _441  and  _444
REMARK  194  A    between atoms: _444  and  _445
REMARK  195  A    between atoms: _445  and  _446
REMARK  196  A    between atoms: _446  and  _447
REMARK  197  A    between atoms: _447  and  _448
REMARK  198  A    between atoms: _452  and  _454
REMARK  199  A    between atoms: _454  and  _455
REMARK  200  A    between atoms: _454  and  _457
REMARK  201  A    between atoms: _457  and  _458
REMARK  202  A    between atoms: _463  and  _465
REMARK  203  A    between atoms: _465  and  _466
REMARK  204  A    between atoms: _465  and  _468
REMARK  205  A    between atoms: _468  and  _469
REMARK  206  A    between atoms: _479  and  _481
REMARK  207  A    between atoms: _481  and  _482
REMARK  208  A    between atoms: _484  and  _486
REMARK  209  A    between atoms: _486  and  _487
REMARK  210  A    between atoms: _486  and  _489
REMARK  211  A    between atoms: _489  and  _490
REMARK  212  A    between atoms: _493  and  _495
REMARK  213  A    between atoms: _495  and  _496
REMARK  214  A    between atoms: _495  and  _498
REMARK  215  A    between atoms: _498  and  _499
REMARK  216  A    between atoms: _499  and  _500
REMARK  217  A    between atoms: _500  and  _501
REMARK  218  A    between atoms: _501  and  _502
REMARK  219  A    between atoms: _506  and  _508
REMARK  220  A    between atoms: _508  and  _509
REMARK  221  A    between atoms: _508  and  _511
REMARK                            x       y       z     vdW  Elec       q    Type
REMARK                         _______ _______ _______ _____ _____    ______ ____
ROOT
ATOM      1  O   HOH     1     -32.703  14.478 -20.969  0.00  0.00    +0.000 OA
ENDROOT
TORSDOF 0
REMARK  Name = ../refined-set-2016/3wha/3wha_pocket.pdb
REMARK  221 active torsions:
REMARK  status: ('A' for Active; 'I' for Inactive)
REMARK    1  A    between atoms: _1  and  _3
REMARK    2  A    between atoms: _3  and  _4
REMARK    3  A    between atoms: _3  and  _6
REMARK    4  A    between atoms: _6  and  _7
REMARK    5  A    between atoms: _10  and  _12
REMARK    6  A    between atoms: _12  and  _13
REMARK    7  A    between atoms: _12  and  _15
REMARK    8  A    between atoms: _15  and  _16
REMARK    9  A    between atoms: _19  and  _21
REMARK   10  A    between atoms: _21  and  _22
REMARK   11  A    between atoms: _21  and  _24
REMARK   12  A    between atoms: _24  and  _25
REMARK   13  A    between atoms: _25  and  _26
REMARK   14  A    between atoms: _29  and  _31
REMARK   15  A    between atoms: _31  and  _32
REMARK   16  A    between atoms: _31  and  _34
REMARK   17  A    between atoms: _34  and  _35
REMARK   18  A    between atoms: _38  and  _40
REMARK   19  A    between atoms: _40  and  _41
REMARK   20  A    between atoms: _40  and  _43
REMARK   21  A    between atoms: _43  and  _44
REMARK   22  A    between atoms: _47  and  _49
REMARK   23  A    between atoms: _49  and  _50
REMARK   24  A    between atoms: _49  and  _52
REMARK   25  A    between atoms: _52  and  _53
REMARK   26  A    between atoms: _55  and  _57
REMARK   27  A    between atoms: _57  and  _58
REMARK   28  A    between atoms: _57  and  _60
REMARK   29  A    between atoms: _60  and  _61
REMARK   30  A    between atoms: _66  and  _68
REMARK   31  A    between atoms: _68  and  _69
REMARK   32  A    between atoms: _68  and  _71
REMARK   33  A    between atoms: _71  and  _72
REMARK   34  A    between atoms: _74  and  _76
REMARK   35  A    between atoms: _76  and  _77
REMARK   36  A    between atoms: _76  and  _79
REMARK   37  A    between atoms: _79  and  _80
REMARK   38  A    between atoms: _82  and  _84
REMARK   39  A    between atoms: _84  and  _85
REMARK   40  A    between atoms: _84  and  _87
REMARK   41  A    between atoms: _87  and  _88
REMARK   42  A    between atoms: _91  and  _93
REMARK   43  A    between atoms: _93  and  _94
REMARK   44  A    between atoms: _97  and  _99
REMARK   45  A    between atoms: _99  and  _100
REMARK   46  A    between atoms: _99  and  _102
REMARK   47  A    between atoms: _102  and  _103
REMARK   48  A    between atoms: _106  and  _108
REMARK   49  A    between atoms: _108  and  _109
REMARK   50  A    between atoms: _108  and  _111
REMARK   51  A    between atoms: _111  and  _112
REMARK   52  A    between atoms: _115  and  _117
REMARK   53  A    between atoms: _117  and  _118
REMARK   54  A    between atoms: _117  and  _120
REMARK   55  A    between atoms: _120  and  _121
REMARK   56  A    between atoms: _121  and  _122
REMARK   57  A    between atoms: _122  and  _123
REMARK   58  A    between atoms: _123  and  _124
REMARK   59  A    between atoms: _128  and  _130
REMARK   60  A    between atoms: _130  and  _131
REMARK   61  A    between atoms: _130  and  _133
REMARK   62  A    between atoms: _133  and  _134
REMARK   63  A    between atoms: _137  and  _139
REMARK   64  A    between atoms: _139  and  _140
REMARK   65  A    between atoms: _139  and  _142
REMARK   66  A    between atoms: _142  and  _143
REMARK   67  A    between atoms: _143  and  _144
REMARK   68  A    between atoms: _147  and  _149
REMARK   69  A    between atoms: _149  and  _150
REMARK   70  A    between atoms: _149  and  _152
REMARK   71  A    between atoms: _152  and  _153
REMARK   72  A    between atoms: _156  and  _158
REMARK   73  A    between atoms: _158  and  _159
REMARK   74  A    between atoms: _158  and  _161
REMARK   75  A    between atoms: _164  and  _166
REMARK   76  A    between atoms: _166  and  _167
REMARK   77  A    between atoms: _166  and  _169
REMARK   78  A    between atoms: _169  and  _170
REMARK   79  A    between atoms: _173  and  _175
REMARK   80  A    between atoms: _175  and  _176
REMARK   81  A    between atoms: _175  and  _178
REMARK   82  A    between atoms: _178  and  _179
REMARK   83  A    between atoms: _182  and  _184
REMARK   84  A    between atoms: _184  and  _185
REMARK   85  A    between atoms: _187  and  _189
REMARK   86  A    between atoms: _189  and  _190
REMARK   87  A    between atoms: _189  and  _192
REMARK   88  A    between atoms: _192  and  _193
REMARK   89  A    between atoms: _196  and  _198
REMARK   90  A    between atoms: _198  and  _199
REMARK   91  A    between atoms: _201  and  _203
REMARK   92  A    between atoms: _203  and  _204
REMARK   93  A    between atoms: _203  and  _206
REMARK   94  A    between atoms: _206  and  _207
REMARK   95  A    between atoms: _207  and  _208
REMARK   96  A    between atoms: _210  and  _212
REMARK   97  A    between atoms: _212  and  _213
REMARK   98  A    between atoms: _212  and  _215
REMARK   99  A    between atoms: _215  and  _216
REMARK  100  A    between atoms: _219  and  _221
REMARK  101  A    between atoms: _221  and  _222
REMARK  102  A    between atoms: _221  and  _224
REMARK  103  A    between atoms: _224  and  _225
REMARK  104  A    between atoms: _228  and  _230
REMARK  105  A    between atoms: _230  and  _231
REMARK  106  A    between atoms: _230  and  _233
REMARK  107  A    between atoms: _233  and  _234
REMARK  108  A    between atoms: _237  and  _239
REMARK  109  A    between atoms: _239  and  _240
REMARK  110  A    between atoms: _239  and  _242
REMARK  111  A    between atoms: _242  and  _243
REMARK  112  A    between atoms: _248  and  _250
REMARK  113  A    between atoms: _250  and  _251
REMARK  114  A    between atoms: _250  and  _253
REMARK  115  A    between atoms: _253  and  _254
REMARK  116  A    between atoms: _259  and  _261
REMARK  117  A    between atoms: _261  and  _262
REMARK  118  A    between atoms: _261  and  _264
REMARK  119  A    between atoms: _264  and  _265
REMARK  120  A    between atoms: _268  and  _270
REMARK  121  A    between atoms: _270  and  _271
REMARK  122  A    between atoms: _273  and  _275
REMARK  123  A    between atoms: _275  and  _276
REMARK  124  A    between atoms: _275  and  _278
REMARK  125  A    between atoms: _278  and  _279
REMARK  126  A    between atoms: _282  and  _284
REMARK  127  A    between atoms: _284  and  _285
REMARK  128  A    between atoms: _284  and  _287
REMARK  129  A    between atoms: _287  and  _288
REMARK  130  A    between atoms: _291  and  _293
REMARK  131  A    between atoms: _293  and  _294
REMARK  132  A    between atoms: _297  and  _299
REMARK  133  A    between atoms: _299  and  _300
REMARK  134  A    between atoms: _299  and  _302
REMARK  135  A    between atoms: _302  and  _303
REMARK  136  A    between atoms: _303  and  _304
REMARK  137  A    between atoms: _304  and  _305
REMARK  138  A    between atoms: _305  and  _306
REMARK  139  A    between atoms: _310  and  _312
REMARK  140  A    between atoms: _312  and  _313
REMARK  141  A    between atoms: _312  and  _315
REMARK  142  A    between atoms: _315  and  _316
REMARK  143  A    between atoms: _318  and  _320
REMARK  144  A    between atoms: _320  and  _321
REMARK  145  A    between atoms: _323  and  _325
REMARK  146  A    between atoms: _325  and  _326
REMARK  147  A    between atoms: _325  and  _328
REMARK  148  A    between atoms: _328  and  _329
REMARK  149  A    between atoms: _332  and  _334
REMARK  150  A    between atoms: _334  and  _335
REMARK  151  A    between atoms: _334  and  _337
REMARK  152  A    between atoms: _337  and  _338
REMARK  153  A    between atoms: _344  and  _346
REMARK  154  A    between atoms: _346  and  _347
REMARK  155  A    between atoms: _349  and  _351
REMARK  156  A    between atoms: _351  and  _352
REMARK  157  A    between atoms: _351  and  _354
REMARK  158  A    between atoms: _357  and  _359
REMARK  159  A    between atoms: _359  and  _360
REMARK  160  A    between atoms: _362  and  _364
REMARK  161  A    between atoms: _364  and  _365
REMARK  162  A    between atoms: _364  and  _367
REMARK  163  A    between atoms: _367  and  _368
REMARK  164  A    between atoms: _374  and  _376
REMARK  165  A    between atoms: _376  and  _377
REMARK  166  A    between atoms: _376  and  _379
REMARK  167  A    between atoms: _379  and  _380
REMARK  168  A    between atoms: _385  and  _386
REMARK  169  A    between atoms: _388  and  _390
REMARK  170  A    between atoms: _390  and  _391
REMARK  171  A    between atoms: _390  and  _393
REMARK  172  A    between atoms: _393  and  _394
REMARK  173  A    between atoms: _396  and  _398
REMARK  174  A    between atoms: _398  and  _399
REMARK  175  A    between atoms: _398  and  _401
REMARK  176  A    between atoms: _404  and  _406
REMARK  177  A    between atoms: _406  and  _407
REMARK  178  A    between atoms: _406  and  _409
REMARK  179  A    between atoms: _409  and  _410
REMARK  180  A    between atoms: _413  and  _415
REMARK  181  A    between atoms: _415  and  _416
REMARK  182  A    between atoms: _415  and  _418
REMARK  183  A    between atoms: _421  and  _423
REMARK  184  A    between atoms: _423  and  _424
REMARK  185  A    between atoms: _423  and  _426
REMARK  186  A    between atoms: _426  and  _427
REMARK  187  A    between atoms: _430  and  _432
REMARK  188  A    between atoms: _432  and  _433
REMARK  189  A    between atoms: _432  and  _435
REMARK  190  A    between atoms: _435  and  _436
REMARK  191  A    between atoms: _439  and  _441
REMARK  192  A    between atoms: _441  and  _442
REMARK  193  A    between atoms: _441  and  _444
REMARK  194  A    between atoms: _444  and  _445
REMARK  195  A    between atoms: _445  and  _446
REMARK  196  A    between atoms: _446  and  _447
REMARK  197  A    between atoms: _447  and  _448
REMARK  198  A    between atoms: _452  and  _454
REMARK  199  A    between atoms: _454  and  _455
REMARK  200  A    between atoms: _454  and  _457
REMARK  201  A    between atoms: _457  and  _458
REMARK  202  A    between atoms: _463  and  _465
REMARK  203  A    between atoms: _465  and  _466
REMARK  204  A    between atoms: _465  and  _468
REMARK  205  A    between atoms: _468  and  _469
REMARK  206  A    between atoms: _479  and  _481
REMARK  207  A    between atoms: _481  and  _482
REMARK  208  A    between atoms: _484  and  _486
REMARK  209  A    between atoms: _486  and  _487
REMARK  210  A    between atoms: _486  and  _489
REMARK  211  A    between atoms: _489  and  _490
REMARK  212  A    between atoms: _493  and  _495
REMARK  213  A    between atoms: _495  and  _496
REMARK  214  A    between atoms: _495  and  _498
REMARK  215  A    between atoms: _498  and  _499
REMARK  216  A    between atoms: _499  and  _500
REMARK  217  A    between atoms: _500  and  _501
REMARK  218  A    between atoms: _501  and  _502
REMARK  219  A    between atoms: _506  and  _508
REMARK  220  A    between atoms: _508  and  _509
REMARK  221  A    between atoms: _508  and  _511
REMARK                            x       y       z     vdW  Elec       q    Type
REMARK                         _______ _______ _______ _____ _____    ______ ____
ROOT
ATOM      1  O   HOH     1     -32.112  23.947 -22.675  0.00  0.00    +0.000 OA
ENDROOT
TORSDOF 0
REMARK  Name = ../refined-set-2016/3wha/3wha_pocket.pdb
REMARK  221 active torsions:
REMARK  status: ('A' for Active; 'I' for Inactive)
REMARK    1  A    between atoms: _1  and  _3
REMARK    2  A    between atoms: _3  and  _4
REMARK    3  A    between atoms: _3  and  _6
REMARK    4  A    between atoms: _6  and  _7
REMARK    5  A    between atoms: _10  and  _12
REMARK    6  A    between atoms: _12  and  _13
REMARK    7  A    between atoms: _12  and  _15
REMARK    8  A    between atoms: _15  and  _16
REMARK    9  A    between atoms: _19  and  _21
REMARK   10  A    between atoms: _21  and  _22
REMARK   11  A    between atoms: _21  and  _24
REMARK   12  A    between atoms: _24  and  _25
REMARK   13  A    between atoms: _25  and  _26
REMARK   14  A    between atoms: _29  and  _31
REMARK   15  A    between atoms: _31  and  _32
REMARK   16  A    between atoms: _31  and  _34
REMARK   17  A    between atoms: _34  and  _35
REMARK   18  A    between atoms: _38  and  _40
REMARK   19  A    between atoms: _40  and  _41
REMARK   20  A    between atoms: _40  and  _43
REMARK   21  A    between atoms: _43  and  _44
REMARK   22  A    between atoms: _47  and  _49
REMARK   23  A    between atoms: _49  and  _50
REMARK   24  A    between atoms: _49  and  _52
REMARK   25  A    between atoms: _52  and  _53
REMARK   26  A    between atoms: _55  and  _57
REMARK   27  A    between atoms: _57  and  _58
REMARK   28  A    between atoms: _57  and  _60
REMARK   29  A    between atoms: _60  and  _61
REMARK   30  A    between atoms: _66  and  _68
REMARK   31  A    between atoms: _68  and  _69
REMARK   32  A    between atoms: _68  and  _71
REMARK   33  A    between atoms: _71  and  _72
REMARK   34  A    between atoms: _74  and  _76
REMARK   35  A    between atoms: _76  and  _77
REMARK   36  A    between atoms: _76  and  _79
REMARK   37  A    between atoms: _79  and  _80
REMARK   38  A    between atoms: _82  and  _84
REMARK   39  A    between atoms: _84  and  _85
REMARK   40  A    between atoms: _84  and  _87
REMARK   41  A    between atoms: _87  and  _88
REMARK   42  A    between atoms: _91  and  _93
REMARK   43  A    between atoms: _93  and  _94
REMARK   44  A    between atoms: _97  and  _99
REMARK   45  A    between atoms: _99  and  _100
REMARK   46  A    between atoms: _99  and  _102
REMARK   47  A    between atoms: _102  and  _103
REMARK   48  A    between atoms: _106  and  _108
REMARK   49  A    between atoms: _108  and  _109
REMARK   50  A    between atoms: _108  and  _111
REMARK   51  A    between atoms: _111  and  _112
REMARK   52  A    between atoms: _115  and  _117
REMARK   53  A    between atoms: _117  and  _118
REMARK   54  A    between atoms: _117  and  _120
REMARK   55  A    between atoms: _120  and  _121
REMARK   56  A    between atoms: _121  and  _122
REMARK   57  A    between atoms: _122  and  _123
REMARK   58  A    between atoms: _123  and  _124
REMARK   59  A    between atoms: _128  and  _130
REMARK   60  A    between atoms: _130  and  _131
REMARK   61  A    between atoms: _130  and  _133
REMARK   62  A    between atoms: _133  and  _134
REMARK   63  A    between atoms: _137  and  _139
REMARK   64  A    between atoms: _139  and  _140
REMARK   65  A    between atoms: _139  and  _142
REMARK   66  A    between atoms: _142  and  _143
REMARK   67  A    between atoms: _143  and  _144
REMARK   68  A    between atoms: _147  and  _149
REMARK   69  A    between atoms: _149  and  _150
REMARK   70  A    between atoms: _149  and  _152
REMARK   71  A    between atoms: _152  and  _153
REMARK   72  A    between atoms: _156  and  _158
REMARK   73  A    between atoms: _158  and  _159
REMARK   74  A    between atoms: _158  and  _161
REMARK   75  A    between atoms: _164  and  _166
REMARK   76  A    between atoms: _166  and  _167
REMARK   77  A    between atoms: _166  and  _169
REMARK   78  A    between atoms: _169  and  _170
REMARK   79  A    between atoms: _173  and  _175
REMARK   80  A    between atoms: _175  and  _176
REMARK   81  A    between atoms: _175  and  _178
REMARK   82  A    between atoms: _178  and  _179
REMARK   83  A    between atoms: _182  and  _184
REMARK   84  A    between atoms: _184  and  _185
REMARK   85  A    between atoms: _187  and  _189
REMARK   86  A    between atoms: _189  and  _190
REMARK   87  A    between atoms: _189  and  _192
REMARK   88  A    between atoms: _192  and  _193
REMARK   89  A    between atoms: _196  and  _198
REMARK   90  A    between atoms: _198  and  _199
REMARK   91  A    between atoms: _201  and  _203
REMARK   92  A    between atoms: _203  and  _204
REMARK   93  A    between atoms: _203  and  _206
REMARK   94  A    between atoms: _206  and  _207
REMARK   95  A    between atoms: _207  and  _208
REMARK   96  A    between atoms: _210  and  _212
REMARK   97  A    between atoms: _212  and  _213
REMARK   98  A    between atoms: _212  and  _215
REMARK   99  A    between atoms: _215  and  _216
REMARK  100  A    between atoms: _219  and  _221
REMARK  101  A    between atoms: _221  and  _222
REMARK  102  A    between atoms: _221  and  _224
REMARK  103  A    between atoms: _224  and  _225
REMARK  104  A    between atoms: _228  and  _230
REMARK  105  A    between atoms: _230  and  _231
REMARK  106  A    between atoms: _230  and  _233
REMARK  107  A    between atoms: _233  and  _234
REMARK  108  A    between atoms: _237  and  _239
REMARK  109  A    between atoms: _239  and  _240
REMARK  110  A    between atoms: _239  and  _242
REMARK  111  A    between atoms: _242  and  _243
REMARK  112  A    between atoms: _248  and  _250
REMARK  113  A    between atoms: _250  and  _251
REMARK  114  A    between atoms: _250  and  _253
REMARK  115  A    between atoms: _253  and  _254
REMARK  116  A    between atoms: _259  and  _261
REMARK  117  A    between atoms: _261  and  _262
REMARK  118  A    between atoms: _261  and  _264
REMARK  119  A    between atoms: _264  and  _265
REMARK  120  A    between atoms: _268  and  _270
REMARK  121  A    between atoms: _270  and  _271
REMARK  122  A    between atoms: _273  and  _275
REMARK  123  A    between atoms: _275  and  _276
REMARK  124  A    between atoms: _275  and  _278
REMARK  125  A    between atoms: _278  and  _279
REMARK  126  A    between atoms: _282  and  _284
REMARK  127  A    between atoms: _284  and  _285
REMARK  128  A    between atoms: _284  and  _287
REMARK  129  A    between atoms: _287  and  _288
REMARK  130  A    between atoms: _291  and  _293
REMARK  131  A    between atoms: _293  and  _294
REMARK  132  A    between atoms: _297  and  _299
REMARK  133  A    between atoms: _299  and  _300
REMARK  134  A    between atoms: _299  and  _302
REMARK  135  A    between atoms: _302  and  _303
REMARK  136  A    between atoms: _303  and  _304
REMARK  137  A    between atoms: _304  and  _305
REMARK  138  A    between atoms: _305  and  _306
REMARK  139  A    between atoms: _310  and  _312
REMARK  140  A    between atoms: _312  and  _313
REMARK  141  A    between atoms: _312  and  _315
REMARK  142  A    between atoms: _315  and  _316
REMARK  143  A    between atoms: _318  and  _320
REMARK  144  A    between atoms: _320  and  _321
REMARK  145  A    between atoms: _323  and  _325
REMARK  146  A    between atoms: _325  and  _326
REMARK  147  A    between atoms: _325  and  _328
REMARK  148  A    between atoms: _328  and  _329
REMARK  149  A    between atoms: _332  and  _334
REMARK  150  A    between atoms: _334  and  _335
REMARK  151  A    between atoms: _334  and  _337
REMARK  152  A    between atoms: _337  and  _338
REMARK  153  A    between atoms: _344  and  _346
REMARK  154  A    between atoms: _346  and  _347
REMARK  155  A    between atoms: _349  and  _351
REMARK  156  A    between atoms: _351  and  _352
REMARK  157  A    between atoms: _351  and  _354
REMARK  158  A    between atoms: _357  and  _359
REMARK  159  A    between atoms: _359  and  _360
REMARK  160  A    between atoms: _362  and  _364
REMARK  161  A    between atoms: _364  and  _365
REMARK  162  A    between atoms: _364  and  _367
REMARK  163  A    between atoms: _367  and  _368
REMARK  164  A    between atoms: _374  and  _376
REMARK  165  A    between atoms: _376  and  _377
REMARK  166  A    between atoms: _376  and  _379
REMARK  167  A    between atoms: _379  and  _380
REMARK  168  A    between atoms: _385  and  _386
REMARK  169  A    between atoms: _388  and  _390
REMARK  170  A    between atoms: _390  and  _391
REMARK  171  A    between atoms: _390  and  _393
REMARK  172  A    between atoms: _393  and  _394
REMARK  173  A    between atoms: _396  and  _398
REMARK  174  A    between atoms: _398  and  _399
REMARK  175  A    between atoms: _398  and  _401
REMARK  176  A    between atoms: _404  and  _406
REMARK  177  A    between atoms: _406  and  _407
REMARK  178  A    between atoms: _406  and  _409
REMARK  179  A    between atoms: _409  and  _410
REMARK  180  A    between atoms: _413  and  _415
REMARK  181  A    between atoms: _415  and  _416
REMARK  182  A    between atoms: _415  and  _418
REMARK  183  A    between atoms: _421  and  _423
REMARK  184  A    between atoms: _423  and  _424
REMARK  185  A    between atoms: _423  and  _426
REMARK  186  A    between atoms: _426  and  _427
REMARK  187  A    between atoms: _430  and  _432
REMARK  188  A    between atoms: _432  and  _433
REMARK  189  A    between atoms: _432  and  _435
REMARK  190  A    between atoms: _435  and  _436
REMARK  191  A    between atoms: _439  and  _441
REMARK  192  A    between atoms: _441  and  _442
REMARK  193  A    between atoms: _441  and  _444
REMARK  194  A    between atoms: _444  and  _445
REMARK  195  A    between atoms: _445  and  _446
REMARK  196  A    between atoms: _446  and  _447
REMARK  197  A    between atoms: _447  and  _448
REMARK  198  A    between atoms: _452  and  _454
REMARK  199  A    between atoms: _454  and  _455
REMARK  200  A    between atoms: _454  and  _457
REMARK  201  A    between atoms: _457  and  _458
REMARK  202  A    between atoms: _463  and  _465
REMARK  203  A    between atoms: _465  and  _466
REMARK  204  A    between atoms: _465  and  _468
REMARK  205  A    between atoms: _468  and  _469
REMARK  206  A    between atoms: _479  and  _481
REMARK  207  A    between atoms: _481  and  _482
REMARK  208  A    between atoms: _484  and  _486
REMARK  209  A    between atoms: _486  and  _487
REMARK  210  A    between atoms: _486  and  _489
REMARK  211  A    between atoms: _489  and  _490
REMARK  212  A    between atoms: _493  and  _495
REMARK  213  A    between atoms: _495  and  _496
REMARK  214  A    between atoms: _495  and  _498
REMARK  215  A    between atoms: _498  and  _499
REMARK  216  A    between atoms: _499  and  _500
REMARK  217  A    between atoms: _500  and  _501
REMARK  218  A    between atoms: _501  and  _502
REMARK  219  A    between atoms: _506  and  _508
REMARK  220  A    between atoms: _508  and  _509
REMARK  221  A    between atoms: _508  and  _511
REMARK                            x       y       z     vdW  Elec       q    Type
REMARK                         _______ _______ _______ _____ _____    ______ ____
ROOT
ATOM      1  O   HOH     1     -37.291  21.044 -21.695  0.00  0.00    +0.000 OA
ENDROOT
TORSDOF 0
REMARK  Name = ../refined-set-2016/3wha/3wha_pocket.pdb
REMARK  221 active torsions:
REMARK  status: ('A' for Active; 'I' for Inactive)
REMARK    1  A    between atoms: _1  and  _3
REMARK    2  A    between atoms: _3  and  _4
REMARK    3  A    between atoms: _3  and  _6
REMARK    4  A    between atoms: _6  and  _7
REMARK    5  A    between atoms: _10  and  _12
REMARK    6  A    between atoms: _12  and  _13
REMARK    7  A    between atoms: _12  and  _15
REMARK    8  A    between atoms: _15  and  _16
REMARK    9  A    between atoms: _19  and  _21
REMARK   10  A    between atoms: _21  and  _22
REMARK   11  A    between atoms: _21  and  _24
REMARK   12  A    between atoms: _24  and  _25
REMARK   13  A    between atoms: _25  and  _26
REMARK   14  A    between atoms: _29  and  _31
REMARK   15  A    between atoms: _31  and  _32
REMARK   16  A    between atoms: _31  and  _34
REMARK   17  A    between atoms: _34  and  _35
REMARK   18  A    between atoms: _38  and  _40
REMARK   19  A    between atoms: _40  and  _41
REMARK   20  A    between atoms: _40  and  _43
REMARK   21  A    between atoms: _43  and  _44
REMARK   22  A    between atoms: _47  and  _49
REMARK   23  A    between atoms: _49  and  _50
REMARK   24  A    between atoms: _49  and  _52
REMARK   25  A    between atoms: _52  and  _53
REMARK   26  A    between atoms: _55  and  _57
REMARK   27  A    between atoms: _57  and  _58
REMARK   28  A    between atoms: _57  and  _60
REMARK   29  A    between atoms: _60  and  _61
REMARK   30  A    between atoms: _66  and  _68
REMARK   31  A    between atoms: _68  and  _69
REMARK   32  A    between atoms: _68  and  _71
REMARK   33  A    between atoms: _71  and  _72
REMARK   34  A    between atoms: _74  and  _76
REMARK   35  A    between atoms: _76  and  _77
REMARK   36  A    between atoms: _76  and  _79
REMARK   37  A    between atoms: _79  and  _80
REMARK   38  A    between atoms: _82  and  _84
REMARK   39  A    between atoms: _84  and  _85
REMARK   40  A    between atoms: _84  and  _87
REMARK   41  A    between atoms: _87  and  _88
REMARK   42  A    between atoms: _91  and  _93
REMARK   43  A    between atoms: _93  and  _94
REMARK   44  A    between atoms: _97  and  _99
REMARK   45  A    between atoms: _99  and  _100
REMARK   46  A    between atoms: _99  and  _102
REMARK   47  A    between atoms: _102  and  _103
REMARK   48  A    between atoms: _106  and  _108
REMARK   49  A    between atoms: _108  and  _109
REMARK   50  A    between atoms: _108  and  _111
REMARK   51  A    between atoms: _111  and  _112
REMARK   52  A    between atoms: _115  and  _117
REMARK   53  A    between atoms: _117  and  _118
REMARK   54  A    between atoms: _117  and  _120
REMARK   55  A    between atoms: _120  and  _121
REMARK   56  A    between atoms: _121  and  _122
REMARK   57  A    between atoms: _122  and  _123
REMARK   58  A    between atoms: _123  and  _124
REMARK   59  A    between atoms: _128  and  _130
REMARK   60  A    between atoms: _130  and  _131
REMARK   61  A    between atoms: _130  and  _133
REMARK   62  A    between atoms: _133  and  _134
REMARK   63  A    between atoms: _137  and  _139
REMARK   64  A    between atoms: _139  and  _140
REMARK   65  A    between atoms: _139  and  _142
REMARK   66  A    between atoms: _142  and  _143
REMARK   67  A    between atoms: _143  and  _144
REMARK   68  A    between atoms: _147  and  _149
REMARK   69  A    between atoms: _149  and  _150
REMARK   70  A    between atoms: _149  and  _152
REMARK   71  A    between atoms: _152  and  _153
REMARK   72  A    between atoms: _156  and  _158
REMARK   73  A    between atoms: _158  and  _159
REMARK   74  A    between atoms: _158  and  _161
REMARK   75  A    between atoms: _164  and  _166
REMARK   76  A    between atoms: _166  and  _167
REMARK   77  A    between atoms: _166  and  _169
REMARK   78  A    between atoms: _169  and  _170
REMARK   79  A    between atoms: _173  and  _175
REMARK   80  A    between atoms: _175  and  _176
REMARK   81  A    between atoms: _175  and  _178
REMARK   82  A    between atoms: _178  and  _179
REMARK   83  A    between atoms: _182  and  _184
REMARK   84  A    between atoms: _184  and  _185
REMARK   85  A    between atoms: _187  and  _189
REMARK   86  A    between atoms: _189  and  _190
REMARK   87  A    between atoms: _189  and  _192
REMARK   88  A    between atoms: _192  and  _193
REMARK   89  A    between atoms: _196  and  _198
REMARK   90  A    between atoms: _198  and  _199
REMARK   91  A    between atoms: _201  and  _203
REMARK   92  A    between atoms: _203  and  _204
REMARK   93  A    between atoms: _203  and  _206
REMARK   94  A    between atoms: _206  and  _207
REMARK   95  A    between atoms: _207  and  _208
REMARK   96  A    between atoms: _210  and  _212
REMARK   97  A    between atoms: _212  and  _213
REMARK   98  A    between atoms: _212  and  _215
REMARK   99  A    between atoms: _215  and  _216
REMARK  100  A    between atoms: _219  and  _221
REMARK  101  A    between atoms: _221  and  _222
REMARK  102  A    between atoms: _221  and  _224
REMARK  103  A    between atoms: _224  and  _225
REMARK  104  A    between atoms: _228  and  _230
REMARK  105  A    between atoms: _230  and  _231
REMARK  106  A    between atoms: _230  and  _233
REMARK  107  A    between atoms: _233  and  _234
REMARK  108  A    between atoms: _237  and  _239
REMARK  109  A    between atoms: _239  and  _240
REMARK  110  A    between atoms: _239  and  _242
REMARK  111  A    between atoms: _242  and  _243
REMARK  112  A    between atoms: _248  and  _250
REMARK  113  A    between atoms: _250  and  _251
REMARK  114  A    between atoms: _250  and  _253
REMARK  115  A    between atoms: _253  and  _254
REMARK  116  A    between atoms: _259  and  _261
REMARK  117  A    between atoms: _261  and  _262
REMARK  118  A    between atoms: _261  and  _264
REMARK  119  A    between atoms: _264  and  _265
REMARK  120  A    between atoms: _268  and  _270
REMARK  121  A    between atoms: _270  and  _271
REMARK  122  A    between atoms: _273  and  _275
REMARK  123  A    between atoms: _275  and  _276
REMARK  124  A    between atoms: _275  and  _278
REMARK  125  A    between atoms: _278  and  _279
REMARK  126  A    between atoms: _282  and  _284
REMARK  127  A    between atoms: _284  and  _285
REMARK  128  A    between atoms: _284  and  _287
REMARK  129  A    between atoms: _287  and  _288
REMARK  130  A    between atoms: _291  and  _293
REMARK  131  A    between atoms: _293  and  _294
REMARK  132  A    between atoms: _297  and  _299
REMARK  133  A    between atoms: _299  and  _300
REMARK  134  A    between atoms: _299  and  _302
REMARK  135  A    between atoms: _302  and  _303
REMARK  136  A    between atoms: _303  and  _304
REMARK  137  A    between atoms: _304  and  _305
REMARK  138  A    between atoms: _305  and  _306
REMARK  139  A    between atoms: _310  and  _312
REMARK  140  A    between atoms: _312  and  _313
REMARK  141  A    between atoms: _312  and  _315
REMARK  142  A    between atoms: _315  and  _316
REMARK  143  A    between atoms: _318  and  _320
REMARK  144  A    between atoms: _320  and  _321
REMARK  145  A    between atoms: _323  and  _325
REMARK  146  A    between atoms: _325  and  _326
REMARK  147  A    between atoms: _325  and  _328
REMARK  148  A    between atoms: _328  and  _329
REMARK  149  A    between atoms: _332  and  _334
REMARK  150  A    between atoms: _334  and  _335
REMARK  151  A    between atoms: _334  and  _337
REMARK  152  A    between atoms: _337  and  _338
REMARK  153  A    between atoms: _344  and  _346
REMARK  154  A    between atoms: _346  and  _347
REMARK  155  A    between atoms: _349  and  _351
REMARK  156  A    between atoms: _351  and  _352
REMARK  157  A    between atoms: _351  and  _354
REMARK  158  A    between atoms: _357  and  _359
REMARK  159  A    between atoms: _359  and  _360
REMARK  160  A    between atoms: _362  and  _364
REMARK  161  A    between atoms: _364  and  _365
REMARK  162  A    between atoms: _364  and  _367
REMARK  163  A    between atoms: _367  and  _368
REMARK  164  A    between atoms: _374  and  _376
REMARK  165  A    between atoms: _376  and  _377
REMARK  166  A    between atoms: _376  and  _379
REMARK  167  A    between atoms: _379  and  _380
REMARK  168  A    between atoms: _385  and  _386
REMARK  169  A    between atoms: _388  and  _390
REMARK  170  A    between atoms: _390  and  _391
REMARK  171  A    between atoms: _390  and  _393
REMARK  172  A    between atoms: _393  and  _394
REMARK  173  A    between atoms: _396  and  _398
REMARK  174  A    between atoms: _398  and  _399
REMARK  175  A    between atoms: _398  and  _401
REMARK  176  A    between atoms: _404  and  _406
REMARK  177  A    between atoms: _406  and  _407
REMARK  178  A    between atoms: _406  and  _409
REMARK  179  A    between atoms: _409  and  _410
REMARK  180  A    between atoms: _413  and  _415
REMARK  181  A    between atoms: _415  and  _416
REMARK  182  A    between atoms: _415  and  _418
REMARK  183  A    between atoms: _421  and  _423
REMARK  184  A    between atoms: _423  and  _424
REMARK  185  A    between atoms: _423  and  _426
REMARK  186  A    between atoms: _426  and  _427
REMARK  187  A    between atoms: _430  and  _432
REMARK  188  A    between atoms: _432  and  _433
REMARK  189  A    between atoms: _432  and  _435
REMARK  190  A    between atoms: _435  and  _436
REMARK  191  A    between atoms: _439  and  _441
REMARK  192  A    between atoms: _441  and  _442
REMARK  193  A    between atoms: _441  and  _444
REMARK  194  A    between atoms: _444  and  _445
REMARK  195  A    between atoms: _445  and  _446
REMARK  196  A    between atoms: _446  and  _447
REMARK  197  A    between atoms: _447  and  _448
REMARK  198  A    between atoms: _452  and  _454
REMARK  199  A    between atoms: _454  and  _455
REMARK  200  A    between atoms: _454  and  _457
REMARK  201  A    between atoms: _457  and  _458
REMARK  202  A    between atoms: _463  and  _465
REMARK  203  A    between atoms: _465  and  _466
REMARK  204  A    between atoms: _465  and  _468
REMARK  205  A    between atoms: _468  and  _469
REMARK  206  A    between atoms: _479  and  _481
REMARK  207  A    between atoms: _481  and  _482
REMARK  208  A    between atoms: _484  and  _486
REMARK  209  A    between atoms: _486  and  _487
REMARK  210  A    between atoms: _486  and  _489
REMARK  211  A    between atoms: _489  and  _490
REMARK  212  A    between atoms: _493  and  _495
REMARK  213  A    between atoms: _495  and  _496
REMARK  214  A    between atoms: _495  and  _498
REMARK  215  A    between atoms: _498  and  _499
REMARK  216  A    between atoms: _499  and  _500
REMARK  217  A    between atoms: _500  and  _501
REMARK  218  A    between atoms: _501  and  _502
REMARK  219  A    between atoms: _506  and  _508
REMARK  220  A    between atoms: _508  and  _509
REMARK  221  A    between atoms: _508  and  _511
REMARK                            x       y       z     vdW  Elec       q    Type
REMARK                         _______ _______ _______ _____ _____    ______ ____
ROOT
ATOM      1  O   HOH     1     -33.306  11.910 -20.288  0.00  0.00    +0.000 OA
ENDROOT
TORSDOF 0
REMARK  Name = ../refined-set-2016/3wha/3wha_pocket.pdb
REMARK  221 active torsions:
REMARK  status: ('A' for Active; 'I' for Inactive)
REMARK    1  A    between atoms: _1  and  _3
REMARK    2  A    between atoms: _3  and  _4
REMARK    3  A    between atoms: _3  and  _6
REMARK    4  A    between atoms: _6  and  _7
REMARK    5  A    between atoms: _10  and  _12
REMARK    6  A    between atoms: _12  and  _13
REMARK    7  A    between atoms: _12  and  _15
REMARK    8  A    between atoms: _15  and  _16
REMARK    9  A    between atoms: _19  and  _21
REMARK   10  A    between atoms: _21  and  _22
REMARK   11  A    between atoms: _21  and  _24
REMARK   12  A    between atoms: _24  and  _25
REMARK   13  A    between atoms: _25  and  _26
REMARK   14  A    between atoms: _29  and  _31
REMARK   15  A    between atoms: _31  and  _32
REMARK   16  A    between atoms: _31  and  _34
REMARK   17  A    between atoms: _34  and  _35
REMARK   18  A    between atoms: _38  and  _40
REMARK   19  A    between atoms: _40  and  _41
REMARK   20  A    between atoms: _40  and  _43
REMARK   21  A    between atoms: _43  and  _44
REMARK   22  A    between atoms: _47  and  _49
REMARK   23  A    between atoms: _49  and  _50
REMARK   24  A    between atoms: _49  and  _52
REMARK   25  A    between atoms: _52  and  _53
REMARK   26  A    between atoms: _55  and  _57
REMARK   27  A    between atoms: _57  and  _58
REMARK   28  A    between atoms: _57  and  _60
REMARK   29  A    between atoms: _60  and  _61
REMARK   30  A    between atoms: _66  and  _68
REMARK   31  A    between atoms: _68  and  _69
REMARK   32  A    between atoms: _68  and  _71
REMARK   33  A    between atoms: _71  and  _72
REMARK   34  A    between atoms: _74  and  _76
REMARK   35  A    between atoms: _76  and  _77
REMARK   36  A    between atoms: _76  and  _79
REMARK   37  A    between atoms: _79  and  _80
REMARK   38  A    between atoms: _82  and  _84
REMARK   39  A    between atoms: _84  and  _85
REMARK   40  A    between atoms: _84  and  _87
REMARK   41  A    between atoms: _87  and  _88
REMARK   42  A    between atoms: _91  and  _93
REMARK   43  A    between atoms: _93  and  _94
REMARK   44  A    between atoms: _97  and  _99
REMARK   45  A    between atoms: _99  and  _100
REMARK   46  A    between atoms: _99  and  _102
REMARK   47  A    between atoms: _102  and  _103
REMARK   48  A    between atoms: _106  and  _108
REMARK   49  A    between atoms: _108  and  _109
REMARK   50  A    between atoms: _108  and  _111
REMARK   51  A    between atoms: _111  and  _112
REMARK   52  A    between atoms: _115  and  _117
REMARK   53  A    between atoms: _117  and  _118
REMARK   54  A    between atoms: _117  and  _120
REMARK   55  A    between atoms: _120  and  _121
REMARK   56  A    between atoms: _121  and  _122
REMARK   57  A    between atoms: _122  and  _123
REMARK   58  A    between atoms: _123  and  _124
REMARK   59  A    between atoms: _128  and  _130
REMARK   60  A    between atoms: _130  and  _131
REMARK   61  A    between atoms: _130  and  _133
REMARK   62  A    between atoms: _133  and  _134
REMARK   63  A    between atoms: _137  and  _139
REMARK   64  A    between atoms: _139  and  _140
REMARK   65  A    between atoms: _139  and  _142
REMARK   66  A    between atoms: _142  and  _143
REMARK   67  A    between atoms: _143  and  _144
REMARK   68  A    between atoms: _147  and  _149
REMARK   69  A    between atoms: _149  and  _150
REMARK   70  A    between atoms: _149  and  _152
REMARK   71  A    between atoms: _152  and  _153
REMARK   72  A    between atoms: _156  and  _158
REMARK   73  A    between atoms: _158  and  _159
REMARK   74  A    between atoms: _158  and  _161
REMARK   75  A    between atoms: _164  and  _166
REMARK   76  A    between atoms: _166  and  _167
REMARK   77  A    between atoms: _166  and  _169
REMARK   78  A    between atoms: _169  and  _170
REMARK   79  A    between atoms: _173  and  _175
REMARK   80  A    between atoms: _175  and  _176
REMARK   81  A    between atoms: _175  and  _178
REMARK   82  A    between atoms: _178  and  _179
REMARK   83  A    between atoms: _182  and  _184
REMARK   84  A    between atoms: _184  and  _185
REMARK   85  A    between atoms: _187  and  _189
REMARK   86  A    between atoms: _189  and  _190
REMARK   87  A    between atoms: _189  and  _192
REMARK   88  A    between atoms: _192  and  _193
REMARK   89  A    between atoms: _196  and  _198
REMARK   90  A    between atoms: _198  and  _199
REMARK   91  A    between atoms: _201  and  _203
REMARK   92  A    between atoms: _203  and  _204
REMARK   93  A    between atoms: _203  and  _206
REMARK   94  A    between atoms: _206  and  _207
REMARK   95  A    between atoms: _207  and  _208
REMARK   96  A    between atoms: _210  and  _212
REMARK   97  A    between atoms: _212  and  _213
REMARK   98  A    between atoms: _212  and  _215
REMARK   99  A    between atoms: _215  and  _216
REMARK  100  A    between atoms: _219  and  _221
REMARK  101  A    between atoms: _221  and  _222
REMARK  102  A    between atoms: _221  and  _224
REMARK  103  A    between atoms: _224  and  _225
REMARK  104  A    between atoms: _228  and  _230
REMARK  105  A    between atoms: _230  and  _231
REMARK  106  A    between atoms: _230  and  _233
REMARK  107  A    between atoms: _233  and  _234
REMARK  108  A    between atoms: _237  and  _239
REMARK  109  A    between atoms: _239  and  _240
REMARK  110  A    between atoms: _239  and  _242
REMARK  111  A    between atoms: _242  and  _243
REMARK  112  A    between atoms: _248  and  _250
REMARK  113  A    between atoms: _250  and  _251
REMARK  114  A    between atoms: _250  and  _253
REMARK  115  A    between atoms: _253  and  _254
REMARK  116  A    between atoms: _259  and  _261
REMARK  117  A    between atoms: _261  and  _262
REMARK  118  A    between atoms: _261  and  _264
REMARK  119  A    between atoms: _264  and  _265
REMARK  120  A    between atoms: _268  and  _270
REMARK  121  A    between atoms: _270  and  _271
REMARK  122  A    between atoms: _273  and  _275
REMARK  123  A    between atoms: _275  and  _276
REMARK  124  A    between atoms: _275  and  _278
REMARK  125  A    between atoms: _278  and  _279
REMARK  126  A    between atoms: _282  and  _284
REMARK  127  A    between atoms: _284  and  _285
REMARK  128  A    between atoms: _284  and  _287
REMARK  129  A    between atoms: _287  and  _288
REMARK  130  A    between atoms: _291  and  _293
REMARK  131  A    between atoms: _293  and  _294
REMARK  132  A    between atoms: _297  and  _299
REMARK  133  A    between atoms: _299  and  _300
REMARK  134  A    between atoms: _299  and  _302
REMARK  135  A    between atoms: _302  and  _303
REMARK  136  A    between atoms: _303  and  _304
REMARK  137  A    between atoms: _304  and  _305
REMARK  138  A    between atoms: _305  and  _306
REMARK  139  A    between atoms: _310  and  _312
REMARK  140  A    between atoms: _312  and  _313
REMARK  141  A    between atoms: _312  and  _315
REMARK  142  A    between atoms: _315  and  _316
REMARK  143  A    between atoms: _318  and  _320
REMARK  144  A    between atoms: _320  and  _321
REMARK  145  A    between atoms: _323  and  _325
REMARK  146  A    between atoms: _325  and  _326
REMARK  147  A    between atoms: _325  and  _328
REMARK  148  A    between atoms: _328  and  _329
REMARK  149  A    between atoms: _332  and  _334
REMARK  150  A    between atoms: _334  and  _335
REMARK  151  A    between atoms: _334  and  _337
REMARK  152  A    between atoms: _337  and  _338
REMARK  153  A    between atoms: _344  and  _346
REMARK  154  A    between atoms: _346  and  _347
REMARK  155  A    between atoms: _349  and  _351
REMARK  156  A    between atoms: _351  and  _352
REMARK  157  A    between atoms: _351  and  _354
REMARK  158  A    between atoms: _357  and  _359
REMARK  159  A    between atoms: _359  and  _360
REMARK  160  A    between atoms: _362  and  _364
REMARK  161  A    between atoms: _364  and  _365
REMARK  162  A    between atoms: _364  and  _367
REMARK  163  A    between atoms: _367  and  _368
REMARK  164  A    between atoms: _374  and  _376
REMARK  165  A    between atoms: _376  and  _377
REMARK  166  A    between atoms: _376  and  _379
REMARK  167  A    between atoms: _379  and  _380
REMARK  168  A    between atoms: _385  and  _386
REMARK  169  A    between atoms: _388  and  _390
REMARK  170  A    between atoms: _390  and  _391
REMARK  171  A    between atoms: _390  and  _393
REMARK  172  A    between atoms: _393  and  _394
REMARK  173  A    between atoms: _396  and  _398
REMARK  174  A    between atoms: _398  and  _399
REMARK  175  A    between atoms: _398  and  _401
REMARK  176  A    between atoms: _404  and  _406
REMARK  177  A    between atoms: _406  and  _407
REMARK  178  A    between atoms: _406  and  _409
REMARK  179  A    between atoms: _409  and  _410
REMARK  180  A    between atoms: _413  and  _415
REMARK  181  A    between atoms: _415  and  _416
REMARK  182  A    between atoms: _415  and  _418
REMARK  183  A    between atoms: _421  and  _423
REMARK  184  A    between atoms: _423  and  _424
REMARK  185  A    between atoms: _423  and  _426
REMARK  186  A    between atoms: _426  and  _427
REMARK  187  A    between atoms: _430  and  _432
REMARK  188  A    between atoms: _432  and  _433
REMARK  189  A    between atoms: _432  and  _435
REMARK  190  A    between atoms: _435  and  _436
REMARK  191  A    between atoms: _439  and  _441
REMARK  192  A    between atoms: _441  and  _442
REMARK  193  A    between atoms: _441  and  _444
REMARK  194  A    between atoms: _444  and  _445
REMARK  195  A    between atoms: _445  and  _446
REMARK  196  A    between atoms: _446  and  _447
REMARK  197  A    between atoms: _447  and  _448
REMARK  198  A    between atoms: _452  and  _454
REMARK  199  A    between atoms: _454  and  _455
REMARK  200  A    between atoms: _454  and  _457
REMARK  201  A    between atoms: _457  and  _458
REMARK  202  A    between atoms: _463  and  _465
REMARK  203  A    between atoms: _465  and  _466
REMARK  204  A    between atoms: _465  and  _468
REMARK  205  A    between atoms: _468  and  _469
REMARK  206  A    between atoms: _479  and  _481
REMARK  207  A    between atoms: _481  and  _482
REMARK  208  A    between atoms: _484  and  _486
REMARK  209  A    between atoms: _486  and  _487
REMARK  210  A    between atoms: _486  and  _489
REMARK  211  A    between atoms: _489  and  _490
REMARK  212  A    between atoms: _493  and  _495
REMARK  213  A    between atoms: _495  and  _496
REMARK  214  A    between atoms: _495  and  _498
REMARK  215  A    between atoms: _498  and  _499
REMARK  216  A    between atoms: _499  and  _500
REMARK  217  A    between atoms: _500  and  _501
REMARK  218  A    between atoms: _501  and  _502
REMARK  219  A    between atoms: _506  and  _508
REMARK  220  A    between atoms: _508  and  _509
REMARK  221  A    between atoms: _508  and  _511
REMARK                            x       y       z     vdW  Elec       q    Type
REMARK                         _______ _______ _______ _____ _____    ______ ____
ROOT
ATOM      1  O   HOH     1     -30.532  10.801 -21.207  0.00  0.00    +0.000 OA
ENDROOT
TORSDOF 0
REMARK  Name = ../refined-set-2016/3wha/3wha_pocket.pdb
REMARK  221 active torsions:
REMARK  status: ('A' for Active; 'I' for Inactive)
REMARK    1  A    between atoms: _1  and  _3
REMARK    2  A    between atoms: _3  and  _4
REMARK    3  A    between atoms: _3  and  _6
REMARK    4  A    between atoms: _6  and  _7
REMARK    5  A    between atoms: _10  and  _12
REMARK    6  A    between atoms: _12  and  _13
REMARK    7  A    between atoms: _12  and  _15
REMARK    8  A    between atoms: _15  and  _16
REMARK    9  A    between atoms: _19  and  _21
REMARK   10  A    between atoms: _21  and  _22
REMARK   11  A    between atoms: _21  and  _24
REMARK   12  A    between atoms: _24  and  _25
REMARK   13  A    between atoms: _25  and  _26
REMARK   14  A    between atoms: _29  and  _31
REMARK   15  A    between atoms: _31  and  _32
REMARK   16  A    between atoms: _31  and  _34
REMARK   17  A    between atoms: _34  and  _35
REMARK   18  A    between atoms: _38  and  _40
REMARK   19  A    between atoms: _40  and  _41
REMARK   20  A    between atoms: _40  and  _43
REMARK   21  A    between atoms: _43  and  _44
REMARK   22  A    between atoms: _47  and  _49
REMARK   23  A    between atoms: _49  and  _50
REMARK   24  A    between atoms: _49  and  _52
REMARK   25  A    between atoms: _52  and  _53
REMARK   26  A    between atoms: _55  and  _57
REMARK   27  A    between atoms: _57  and  _58
REMARK   28  A    between atoms: _57  and  _60
REMARK   29  A    between atoms: _60  and  _61
REMARK   30  A    between atoms: _66  and  _68
REMARK   31  A    between atoms: _68  and  _69
REMARK   32  A    between atoms: _68  and  _71
REMARK   33  A    between atoms: _71  and  _72
REMARK   34  A    between atoms: _74  and  _76
REMARK   35  A    between atoms: _76  and  _77
REMARK   36  A    between atoms: _76  and  _79
REMARK   37  A    between atoms: _79  and  _80
REMARK   38  A    between atoms: _82  and  _84
REMARK   39  A    between atoms: _84  and  _85
REMARK   40  A    between atoms: _84  and  _87
REMARK   41  A    between atoms: _87  and  _88
REMARK   42  A    between atoms: _91  and  _93
REMARK   43  A    between atoms: _93  and  _94
REMARK   44  A    between atoms: _97  and  _99
REMARK   45  A    between atoms: _99  and  _100
REMARK   46  A    between atoms: _99  and  _102
REMARK   47  A    between atoms: _102  and  _103
REMARK   48  A    between atoms: _106  and  _108
REMARK   49  A    between atoms: _108  and  _109
REMARK   50  A    between atoms: _108  and  _111
REMARK   51  A    between atoms: _111  and  _112
REMARK   52  A    between atoms: _115  and  _117
REMARK   53  A    between atoms: _117  and  _118
REMARK   54  A    between atoms: _117  and  _120
REMARK   55  A    between atoms: _120  and  _121
REMARK   56  A    between atoms: _121  and  _122
REMARK   57  A    between atoms: _122  and  _123
REMARK   58  A    between atoms: _123  and  _124
REMARK   59  A    between atoms: _128  and  _130
REMARK   60  A    between atoms: _130  and  _131
REMARK   61  A    between atoms: _130  and  _133
REMARK   62  A    between atoms: _133  and  _134
REMARK   63  A    between atoms: _137  and  _139
REMARK   64  A    between atoms: _139  and  _140
REMARK   65  A    between atoms: _139  and  _142
REMARK   66  A    between atoms: _142  and  _143
REMARK   67  A    between atoms: _143  and  _144
REMARK   68  A    between atoms: _147  and  _149
REMARK   69  A    between atoms: _149  and  _150
REMARK   70  A    between atoms: _149  and  _152
REMARK   71  A    between atoms: _152  and  _153
REMARK   72  A    between atoms: _156  and  _158
REMARK   73  A    between atoms: _158  and  _159
REMARK   74  A    between atoms: _158  and  _161
REMARK   75  A    between atoms: _164  and  _166
REMARK   76  A    between atoms: _166  and  _167
REMARK   77  A    between atoms: _166  and  _169
REMARK   78  A    between atoms: _169  and  _170
REMARK   79  A    between atoms: _173  and  _175
REMARK   80  A    between atoms: _175  and  _176
REMARK   81  A    between atoms: _175  and  _178
REMARK   82  A    between atoms: _178  and  _179
REMARK   83  A    between atoms: _182  and  _184
REMARK   84  A    between atoms: _184  and  _185
REMARK   85  A    between atoms: _187  and  _189
REMARK   86  A    between atoms: _189  and  _190
REMARK   87  A    between atoms: _189  and  _192
REMARK   88  A    between atoms: _192  and  _193
REMARK   89  A    between atoms: _196  and  _198
REMARK   90  A    between atoms: _198  and  _199
REMARK   91  A    between atoms: _201  and  _203
REMARK   92  A    between atoms: _203  and  _204
REMARK   93  A    between atoms: _203  and  _206
REMARK   94  A    between atoms: _206  and  _207
REMARK   95  A    between atoms: _207  and  _208
REMARK   96  A    between atoms: _210  and  _212
REMARK   97  A    between atoms: _212  and  _213
REMARK   98  A    between atoms: _212  and  _215
REMARK   99  A    between atoms: _215  and  _216
REMARK  100  A    between atoms: _219  and  _221
REMARK  101  A    between atoms: _221  and  _222
REMARK  102  A    between atoms: _221  and  _224
REMARK  103  A    between atoms: _224  and  _225
REMARK  104  A    between atoms: _228  and  _230
REMARK  105  A    between atoms: _230  and  _231
REMARK  106  A    between atoms: _230  and  _233
REMARK  107  A    between atoms: _233  and  _234
REMARK  108  A    between atoms: _237  and  _239
REMARK  109  A    between atoms: _239  and  _240
REMARK  110  A    between atoms: _239  and  _242
REMARK  111  A    between atoms: _242  and  _243
REMARK  112  A    between atoms: _248  and  _250
REMARK  113  A    between atoms: _250  and  _251
REMARK  114  A    between atoms: _250  and  _253
REMARK  115  A    between atoms: _253  and  _254
REMARK  116  A    between atoms: _259  and  _261
REMARK  117  A    between atoms: _261  and  _262
REMARK  118  A    between atoms: _261  and  _264
REMARK  119  A    between atoms: _264  and  _265
REMARK  120  A    between atoms: _268  and  _270
REMARK  121  A    between atoms: _270  and  _271
REMARK  122  A    between atoms: _273  and  _275
REMARK  123  A    between atoms: _275  and  _276
REMARK  124  A    between atoms: _275  and  _278
REMARK  125  A    between atoms: _278  and  _279
REMARK  126  A    between atoms: _282  and  _284
REMARK  127  A    between atoms: _284  and  _285
REMARK  128  A    between atoms: _284  and  _287
REMARK  129  A    between atoms: _287  and  _288
REMARK  130  A    between atoms: _291  and  _293
REMARK  131  A    between atoms: _293  and  _294
REMARK  132  A    between atoms: _297  and  _299
REMARK  133  A    between atoms: _299  and  _300
REMARK  134  A    between atoms: _299  and  _302
REMARK  135  A    between atoms: _302  and  _303
REMARK  136  A    between atoms: _303  and  _304
REMARK  137  A    between atoms: _304  and  _305
REMARK  138  A    between atoms: _305  and  _306
REMARK  139  A    between atoms: _310  and  _312
REMARK  140  A    between atoms: _312  and  _313
REMARK  141  A    between atoms: _312  and  _315
REMARK  142  A    between atoms: _315  and  _316
REMARK  143  A    between atoms: _318  and  _320
REMARK  144  A    between atoms: _320  and  _321
REMARK  145  A    between atoms: _323  and  _325
REMARK  146  A    between atoms: _325  and  _326
REMARK  147  A    between atoms: _325  and  _328
REMARK  148  A    between atoms: _328  and  _329
REMARK  149  A    between atoms: _332  and  _334
REMARK  150  A    between atoms: _334  and  _335
REMARK  151  A    between atoms: _334  and  _337
REMARK  152  A    between atoms: _337  and  _338
REMARK  153  A    between atoms: _344  and  _346
REMARK  154  A    between atoms: _346  and  _347
REMARK  155  A    between atoms: _349  and  _351
REMARK  156  A    between atoms: _351  and  _352
REMARK  157  A    between atoms: _351  and  _354
REMARK  158  A    between atoms: _357  and  _359
REMARK  159  A    between atoms: _359  and  _360
REMARK  160  A    between atoms: _362  and  _364
REMARK  161  A    between atoms: _364  and  _365
REMARK  162  A    between atoms: _364  and  _367
REMARK  163  A    between atoms: _367  and  _368
REMARK  164  A    between atoms: _374  and  _376
REMARK  165  A    between atoms: _376  and  _377
REMARK  166  A    between atoms: _376  and  _379
REMARK  167  A    between atoms: _379  and  _380
REMARK  168  A    between atoms: _385  and  _386
REMARK  169  A    between atoms: _388  and  _390
REMARK  170  A    between atoms: _390  and  _391
REMARK  171  A    between atoms: _390  and  _393
REMARK  172  A    between atoms: _393  and  _394
REMARK  173  A    between atoms: _396  and  _398
REMARK  174  A    between atoms: _398  and  _399
REMARK  175  A    between atoms: _398  and  _401
REMARK  176  A    between atoms: _404  and  _406
REMARK  177  A    between atoms: _406  and  _407
REMARK  178  A    between atoms: _406  and  _409
REMARK  179  A    between atoms: _409  and  _410
REMARK  180  A    between atoms: _413  and  _415
REMARK  181  A    between atoms: _415  and  _416
REMARK  182  A    between atoms: _415  and  _418
REMARK  183  A    between atoms: _421  and  _423
REMARK  184  A    between atoms: _423  and  _424
REMARK  185  A    between atoms: _423  and  _426
REMARK  186  A    between atoms: _426  and  _427
REMARK  187  A    between atoms: _430  and  _432
REMARK  188  A    between atoms: _432  and  _433
REMARK  189  A    between atoms: _432  and  _435
REMARK  190  A    between atoms: _435  and  _436
REMARK  191  A    between atoms: _439  and  _441
REMARK  192  A    between atoms: _441  and  _442
REMARK  193  A    between atoms: _441  and  _444
REMARK  194  A    between atoms: _444  and  _445
REMARK  195  A    between atoms: _445  and  _446
REMARK  196  A    between atoms: _446  and  _447
REMARK  197  A    between atoms: _447  and  _448
REMARK  198  A    between atoms: _452  and  _454
REMARK  199  A    between atoms: _454  and  _455
REMARK  200  A    between atoms: _454  and  _457
REMARK  201  A    between atoms: _457  and  _458
REMARK  202  A    between atoms: _463  and  _465
REMARK  203  A    between atoms: _465  and  _466
REMARK  204  A    between atoms: _465  and  _468
REMARK  205  A    between atoms: _468  and  _469
REMARK  206  A    between atoms: _479  and  _481
REMARK  207  A    between atoms: _481  and  _482
REMARK  208  A    between atoms: _484  and  _486
REMARK  209  A    between atoms: _486  and  _487
REMARK  210  A    between atoms: _486  and  _489
REMARK  211  A    between atoms: _489  and  _490
REMARK  212  A    between atoms: _493  and  _495
REMARK  213  A    between atoms: _495  and  _496
REMARK  214  A    between atoms: _495  and  _498
REMARK  215  A    between atoms: _498  and  _499
REMARK  216  A    between atoms: _499  and  _500
REMARK  217  A    between atoms: _500  and  _501
REMARK  218  A    between atoms: _501  and  _502
REMARK  219  A    between atoms: _506  and  _508
REMARK  220  A    between atoms: _508  and  _509
REMARK  221  A    between atoms: _508  and  _511
REMARK                            x       y       z     vdW  Elec       q    Type
REMARK                         _______ _______ _______ _____ _____    ______ ____
ROOT
ATOM      1  O   HOH     1     -30.750  22.584 -26.833  0.00  0.00    +0.000 OA
ENDROOT
TORSDOF 0
REMARK  Name = ../refined-set-2016/3wha/3wha_pocket.pdb
REMARK  221 active torsions:
REMARK  status: ('A' for Active; 'I' for Inactive)
REMARK    1  A    between atoms: _1  and  _3
REMARK    2  A    between atoms: _3  and  _4
REMARK    3  A    between atoms: _3  and  _6
REMARK    4  A    between atoms: _6  and  _7
REMARK    5  A    between atoms: _10  and  _12
REMARK    6  A    between atoms: _12  and  _13
REMARK    7  A    between atoms: _12  and  _15
REMARK    8  A    between atoms: _15  and  _16
REMARK    9  A    between atoms: _19  and  _21
REMARK   10  A    between atoms: _21  and  _22
REMARK   11  A    between atoms: _21  and  _24
REMARK   12  A    between atoms: _24  and  _25
REMARK   13  A    between atoms: _25  and  _26
REMARK   14  A    between atoms: _29  and  _31
REMARK   15  A    between atoms: _31  and  _32
REMARK   16  A    between atoms: _31  and  _34
REMARK   17  A    between atoms: _34  and  _35
REMARK   18  A    between atoms: _38  and  _40
REMARK   19  A    between atoms: _40  and  _41
REMARK   20  A    between atoms: _40  and  _43
REMARK   21  A    between atoms: _43  and  _44
REMARK   22  A    between atoms: _47  and  _49
REMARK   23  A    between atoms: _49  and  _50
REMARK   24  A    between atoms: _49  and  _52
REMARK   25  A    between atoms: _52  and  _53
REMARK   26  A    between atoms: _55  and  _57
REMARK   27  A    between atoms: _57  and  _58
REMARK   28  A    between atoms: _57  and  _60
REMARK   29  A    between atoms: _60  and  _61
REMARK   30  A    between atoms: _66  and  _68
REMARK   31  A    between atoms: _68  and  _69
REMARK   32  A    between atoms: _68  and  _71
REMARK   33  A    between atoms: _71  and  _72
REMARK   34  A    between atoms: _74  and  _76
REMARK   35  A    between atoms: _76  and  _77
REMARK   36  A    between atoms: _76  and  _79
REMARK   37  A    between atoms: _79  and  _80
REMARK   38  A    between atoms: _82  and  _84
REMARK   39  A    between atoms: _84  and  _85
REMARK   40  A    between atoms: _84  and  _87
REMARK   41  A    between atoms: _87  and  _88
REMARK   42  A    between atoms: _91  and  _93
REMARK   43  A    between atoms: _93  and  _94
REMARK   44  A    between atoms: _97  and  _99
REMARK   45  A    between atoms: _99  and  _100
REMARK   46  A    between atoms: _99  and  _102
REMARK   47  A    between atoms: _102  and  _103
REMARK   48  A    between atoms: _106  and  _108
REMARK   49  A    between atoms: _108  and  _109
REMARK   50  A    between atoms: _108  and  _111
REMARK   51  A    between atoms: _111  and  _112
REMARK   52  A    between atoms: _115  and  _117
REMARK   53  A    between atoms: _117  and  _118
REMARK   54  A    between atoms: _117  and  _120
REMARK   55  A    between atoms: _120  and  _121
REMARK   56  A    between atoms: _121  and  _122
REMARK   57  A    between atoms: _122  and  _123
REMARK   58  A    between atoms: _123  and  _124
REMARK   59  A    between atoms: _128  and  _130
REMARK   60  A    between atoms: _130  and  _131
REMARK   61  A    between atoms: _130  and  _133
REMARK   62  A    between atoms: _133  and  _134
REMARK   63  A    between atoms: _137  and  _139
REMARK   64  A    between atoms: _139  and  _140
REMARK   65  A    between atoms: _139  and  _142
REMARK   66  A    between atoms: _142  and  _143
REMARK   67  A    between atoms: _143  and  _144
REMARK   68  A    between atoms: _147  and  _149
REMARK   69  A    between atoms: _149  and  _150
REMARK   70  A    between atoms: _149  and  _152
REMARK   71  A    between atoms: _152  and  _153
REMARK   72  A    between atoms: _156  and  _158
REMARK   73  A    between atoms: _158  and  _159
REMARK   74  A    between atoms: _158  and  _161
REMARK   75  A    between atoms: _164  and  _166
REMARK   76  A    between atoms: _166  and  _167
REMARK   77  A    between atoms: _166  and  _169
REMARK   78  A    between atoms: _169  and  _170
REMARK   79  A    between atoms: _173  and  _175
REMARK   80  A    between atoms: _175  and  _176
REMARK   81  A    between atoms: _175  and  _178
REMARK   82  A    between atoms: _178  and  _179
REMARK   83  A    between atoms: _182  and  _184
REMARK   84  A    between atoms: _184  and  _185
REMARK   85  A    between atoms: _187  and  _189
REMARK   86  A    between atoms: _189  and  _190
REMARK   87  A    between atoms: _189  and  _192
REMARK   88  A    between atoms: _192  and  _193
REMARK   89  A    between atoms: _196  and  _198
REMARK   90  A    between atoms: _198  and  _199
REMARK   91  A    between atoms: _201  and  _203
REMARK   92  A    between atoms: _203  and  _204
REMARK   93  A    between atoms: _203  and  _206
REMARK   94  A    between atoms: _206  and  _207
REMARK   95  A    between atoms: _207  and  _208
REMARK   96  A    between atoms: _210  and  _212
REMARK   97  A    between atoms: _212  and  _213
REMARK   98  A    between atoms: _212  and  _215
REMARK   99  A    between atoms: _215  and  _216
REMARK  100  A    between atoms: _219  and  _221
REMARK  101  A    between atoms: _221  and  _222
REMARK  102  A    between atoms: _221  and  _224
REMARK  103  A    between atoms: _224  and  _225
REMARK  104  A    between atoms: _228  and  _230
REMARK  105  A    between atoms: _230  and  _231
REMARK  106  A    between atoms: _230  and  _233
REMARK  107  A    between atoms: _233  and  _234
REMARK  108  A    between atoms: _237  and  _239
REMARK  109  A    between atoms: _239  and  _240
REMARK  110  A    between atoms: _239  and  _242
REMARK  111  A    between atoms: _242  and  _243
REMARK  112  A    between atoms: _248  and  _250
REMARK  113  A    between atoms: _250  and  _251
REMARK  114  A    between atoms: _250  and  _253
REMARK  115  A    between atoms: _253  and  _254
REMARK  116  A    between atoms: _259  and  _261
REMARK  117  A    between atoms: _261  and  _262
REMARK  118  A    between atoms: _261  and  _264
REMARK  119  A    between atoms: _264  and  _265
REMARK  120  A    between atoms: _268  and  _270
REMARK  121  A    between atoms: _270  and  _271
REMARK  122  A    between atoms: _273  and  _275
REMARK  123  A    between atoms: _275  and  _276
REMARK  124  A    between atoms: _275  and  _278
REMARK  125  A    between atoms: _278  and  _279
REMARK  126  A    between atoms: _282  and  _284
REMARK  127  A    between atoms: _284  and  _285
REMARK  128  A    between atoms: _284  and  _287
REMARK  129  A    between atoms: _287  and  _288
REMARK  130  A    between atoms: _291  and  _293
REMARK  131  A    between atoms: _293  and  _294
REMARK  132  A    between atoms: _297  and  _299
REMARK  133  A    between atoms: _299  and  _300
REMARK  134  A    between atoms: _299  and  _302
REMARK  135  A    between atoms: _302  and  _303
REMARK  136  A    between atoms: _303  and  _304
REMARK  137  A    between atoms: _304  and  _305
REMARK  138  A    between atoms: _305  and  _306
REMARK  139  A    between atoms: _310  and  _312
REMARK  140  A    between atoms: _312  and  _313
REMARK  141  A    between atoms: _312  and  _315
REMARK  142  A    between atoms: _315  and  _316
REMARK  143  A    between atoms: _318  and  _320
REMARK  144  A    between atoms: _320  and  _321
REMARK  145  A    between atoms: _323  and  _325
REMARK  146  A    between atoms: _325  and  _326
REMARK  147  A    between atoms: _325  and  _328
REMARK  148  A    between atoms: _328  and  _329
REMARK  149  A    between atoms: _332  and  _334
REMARK  150  A    between atoms: _334  and  _335
REMARK  151  A    between atoms: _334  and  _337
REMARK  152  A    between atoms: _337  and  _338
REMARK  153  A    between atoms: _344  and  _346
REMARK  154  A    between atoms: _346  and  _347
REMARK  155  A    between atoms: _349  and  _351
REMARK  156  A    between atoms: _351  and  _352
REMARK  157  A    between atoms: _351  and  _354
REMARK  158  A    between atoms: _357  and  _359
REMARK  159  A    between atoms: _359  and  _360
REMARK  160  A    between atoms: _362  and  _364
REMARK  161  A    between atoms: _364  and  _365
REMARK  162  A    between atoms: _364  and  _367
REMARK  163  A    between atoms: _367  and  _368
REMARK  164  A    between atoms: _374  and  _376
REMARK  165  A    between atoms: _376  and  _377
REMARK  166  A    between atoms: _376  and  _379
REMARK  167  A    between atoms: _379  and  _380
REMARK  168  A    between atoms: _385  and  _386
REMARK  169  A    between atoms: _388  and  _390
REMARK  170  A    between atoms: _390  and  _391
REMARK  171  A    between atoms: _390  and  _393
REMARK  172  A    between atoms: _393  and  _394
REMARK  173  A    between atoms: _396  and  _398
REMARK  174  A    between atoms: _398  and  _399
REMARK  175  A    between atoms: _398  and  _401
REMARK  176  A    between atoms: _404  and  _406
REMARK  177  A    between atoms: _406  and  _407
REMARK  178  A    between atoms: _406  and  _409
REMARK  179  A    between atoms: _409  and  _410
REMARK  180  A    between atoms: _413  and  _415
REMARK  181  A    between atoms: _415  and  _416
REMARK  182  A    between atoms: _415  and  _418
REMARK  183  A    between atoms: _421  and  _423
REMARK  184  A    between atoms: _423  and  _424
REMARK  185  A    between atoms: _423  and  _426
REMARK  186  A    between atoms: _426  and  _427
REMARK  187  A    between atoms: _430  and  _432
REMARK  188  A    between atoms: _432  and  _433
REMARK  189  A    between atoms: _432  and  _435
REMARK  190  A    between atoms: _435  and  _436
REMARK  191  A    between atoms: _439  and  _441
REMARK  192  A    between atoms: _441  and  _442
REMARK  193  A    between atoms: _441  and  _444
REMARK  194  A    between atoms: _444  and  _445
REMARK  195  A    between atoms: _445  and  _446
REMARK  196  A    between atoms: _446  and  _447
REMARK  197  A    between atoms: _447  and  _448
REMARK  198  A    between atoms: _452  and  _454
REMARK  199  A    between atoms: _454  and  _455
REMARK  200  A    between atoms: _454  and  _457
REMARK  201  A    between atoms: _457  and  _458
REMARK  202  A    between atoms: _463  and  _465
REMARK  203  A    between atoms: _465  and  _466
REMARK  204  A    between atoms: _465  and  _468
REMARK  205  A    between atoms: _468  and  _469
REMARK  206  A    between atoms: _479  and  _481
REMARK  207  A    between atoms: _481  and  _482
REMARK  208  A    between atoms: _484  and  _486
REMARK  209  A    between atoms: _486  and  _487
REMARK  210  A    between atoms: _486  and  _489
REMARK  211  A    between atoms: _489  and  _490
REMARK  212  A    between atoms: _493  and  _495
REMARK  213  A    between atoms: _495  and  _496
REMARK  214  A    between atoms: _495  and  _498
REMARK  215  A    between atoms: _498  and  _499
REMARK  216  A    between atoms: _499  and  _500
REMARK  217  A    between atoms: _500  and  _501
REMARK  218  A    between atoms: _501  and  _502
REMARK  219  A    between atoms: _506  and  _508
REMARK  220  A    between atoms: _508  and  _509
REMARK  221  A    between atoms: _508  and  _511
REMARK                            x       y       z     vdW  Elec       q    Type
REMARK                         _______ _______ _______ _____ _____    ______ ____
ROOT
ATOM      1  O   HOH     1     -32.381  26.549 -26.111  0.00  0.00    +0.000 OA
ENDROOT
TORSDOF 0
REMARK  Name = ../refined-set-2016/3wha/3wha_pocket.pdb
REMARK  221 active torsions:
REMARK  status: ('A' for Active; 'I' for Inactive)
REMARK    1  A    between atoms: _1  and  _3
REMARK    2  A    between atoms: _3  and  _4
REMARK    3  A    between atoms: _3  and  _6
REMARK    4  A    between atoms: _6  and  _7
REMARK    5  A    between atoms: _10  and  _12
REMARK    6  A    between atoms: _12  and  _13
REMARK    7  A    between atoms: _12  and  _15
REMARK    8  A    between atoms: _15  and  _16
REMARK    9  A    between atoms: _19  and  _21
REMARK   10  A    between atoms: _21  and  _22
REMARK   11  A    between atoms: _21  and  _24
REMARK   12  A    between atoms: _24  and  _25
REMARK   13  A    between atoms: _25  and  _26
REMARK   14  A    between atoms: _29  and  _31
REMARK   15  A    between atoms: _31  and  _32
REMARK   16  A    between atoms: _31  and  _34
REMARK   17  A    between atoms: _34  and  _35
REMARK   18  A    between atoms: _38  and  _40
REMARK   19  A    between atoms: _40  and  _41
REMARK   20  A    between atoms: _40  and  _43
REMARK   21  A    between atoms: _43  and  _44
REMARK   22  A    between atoms: _47  and  _49
REMARK   23  A    between atoms: _49  and  _50
REMARK   24  A    between atoms: _49  and  _52
REMARK   25  A    between atoms: _52  and  _53
REMARK   26  A    between atoms: _55  and  _57
REMARK   27  A    between atoms: _57  and  _58
REMARK   28  A    between atoms: _57  and  _60
REMARK   29  A    between atoms: _60  and  _61
REMARK   30  A    between atoms: _66  and  _68
REMARK   31  A    between atoms: _68  and  _69
REMARK   32  A    between atoms: _68  and  _71
REMARK   33  A    between atoms: _71  and  _72
REMARK   34  A    between atoms: _74  and  _76
REMARK   35  A    between atoms: _76  and  _77
REMARK   36  A    between atoms: _76  and  _79
REMARK   37  A    between atoms: _79  and  _80
REMARK   38  A    between atoms: _82  and  _84
REMARK   39  A    between atoms: _84  and  _85
REMARK   40  A    between atoms: _84  and  _87
REMARK   41  A    between atoms: _87  and  _88
REMARK   42  A    between atoms: _91  and  _93
REMARK   43  A    between atoms: _93  and  _94
REMARK   44  A    between atoms: _97  and  _99
REMARK   45  A    between atoms: _99  and  _100
REMARK   46  A    between atoms: _99  and  _102
REMARK   47  A    between atoms: _102  and  _103
REMARK   48  A    between atoms: _106  and  _108
REMARK   49  A    between atoms: _108  and  _109
REMARK   50  A    between atoms: _108  and  _111
REMARK   51  A    between atoms: _111  and  _112
REMARK   52  A    between atoms: _115  and  _117
REMARK   53  A    between atoms: _117  and  _118
REMARK   54  A    between atoms: _117  and  _120
REMARK   55  A    between atoms: _120  and  _121
REMARK   56  A    between atoms: _121  and  _122
REMARK   57  A    between atoms: _122  and  _123
REMARK   58  A    between atoms: _123  and  _124
REMARK   59  A    between atoms: _128  and  _130
REMARK   60  A    between atoms: _130  and  _131
REMARK   61  A    between atoms: _130  and  _133
REMARK   62  A    between atoms: _133  and  _134
REMARK   63  A    between atoms: _137  and  _139
REMARK   64  A    between atoms: _139  and  _140
REMARK   65  A    between atoms: _139  and  _142
REMARK   66  A    between atoms: _142  and  _143
REMARK   67  A    between atoms: _143  and  _144
REMARK   68  A    between atoms: _147  and  _149
REMARK   69  A    between atoms: _149  and  _150
REMARK   70  A    between atoms: _149  and  _152
REMARK   71  A    between atoms: _152  and  _153
REMARK   72  A    between atoms: _156  and  _158
REMARK   73  A    between atoms: _158  and  _159
REMARK   74  A    between atoms: _158  and  _161
REMARK   75  A    between atoms: _164  and  _166
REMARK   76  A    between atoms: _166  and  _167
REMARK   77  A    between atoms: _166  and  _169
REMARK   78  A    between atoms: _169  and  _170
REMARK   79  A    between atoms: _173  and  _175
REMARK   80  A    between atoms: _175  and  _176
REMARK   81  A    between atoms: _175  and  _178
REMARK   82  A    between atoms: _178  and  _179
REMARK   83  A    between atoms: _182  and  _184
REMARK   84  A    between atoms: _184  and  _185
REMARK   85  A    between atoms: _187  and  _189
REMARK   86  A    between atoms: _189  and  _190
REMARK   87  A    between atoms: _189  and  _192
REMARK   88  A    between atoms: _192  and  _193
REMARK   89  A    between atoms: _196  and  _198
REMARK   90  A    between atoms: _198  and  _199
REMARK   91  A    between atoms: _201  and  _203
REMARK   92  A    between atoms: _203  and  _204
REMARK   93  A    between atoms: _203  and  _206
REMARK   94  A    between atoms: _206  and  _207
REMARK   95  A    between atoms: _207  and  _208
REMARK   96  A    between atoms: _210  and  _212
REMARK   97  A    between atoms: _212  and  _213
REMARK   98  A    between atoms: _212  and  _215
REMARK   99  A    between atoms: _215  and  _216
REMARK  100  A    between atoms: _219  and  _221
REMARK  101  A    between atoms: _221  and  _222
REMARK  102  A    between atoms: _221  and  _224
REMARK  103  A    between atoms: _224  and  _225
REMARK  104  A    between atoms: _228  and  _230
REMARK  105  A    between atoms: _230  and  _231
REMARK  106  A    between atoms: _230  and  _233
REMARK  107  A    between atoms: _233  and  _234
REMARK  108  A    between atoms: _237  and  _239
REMARK  109  A    between atoms: _239  and  _240
REMARK  110  A    between atoms: _239  and  _242
REMARK  111  A    between atoms: _242  and  _243
REMARK  112  A    between atoms: _248  and  _250
REMARK  113  A    between atoms: _250  and  _251
REMARK  114  A    between atoms: _250  and  _253
REMARK  115  A    between atoms: _253  and  _254
REMARK  116  A    between atoms: _259  and  _261
REMARK  117  A    between atoms: _261  and  _262
REMARK  118  A    between atoms: _261  and  _264
REMARK  119  A    between atoms: _264  and  _265
REMARK  120  A    between atoms: _268  and  _270
REMARK  121  A    between atoms: _270  and  _271
REMARK  122  A    between atoms: _273  and  _275
REMARK  123  A    between atoms: _275  and  _276
REMARK  124  A    between atoms: _275  and  _278
REMARK  125  A    between atoms: _278  and  _279
REMARK  126  A    between atoms: _282  and  _284
REMARK  127  A    between atoms: _284  and  _285
REMARK  128  A    between atoms: _284  and  _287
REMARK  129  A    between atoms: _287  and  _288
REMARK  130  A    between atoms: _291  and  _293
REMARK  131  A    between atoms: _293  and  _294
REMARK  132  A    between atoms: _297  and  _299
REMARK  133  A    between atoms: _299  and  _300
REMARK  134  A    between atoms: _299  and  _302
REMARK  135  A    between atoms: _302  and  _303
REMARK  136  A    between atoms: _303  and  _304
REMARK  137  A    between atoms: _304  and  _305
REMARK  138  A    between atoms: _305  and  _306
REMARK  139  A    between atoms: _310  and  _312
REMARK  140  A    between atoms: _312  and  _313
REMARK  141  A    between atoms: _312  and  _315
REMARK  142  A    between atoms: _315  and  _316
REMARK  143  A    between atoms: _318  and  _320
REMARK  144  A    between atoms: _320  and  _321
REMARK  145  A    between atoms: _323  and  _325
REMARK  146  A    between atoms: _325  and  _326
REMARK  147  A    between atoms: _325  and  _328
REMARK  148  A    between atoms: _328  and  _329
REMARK  149  A    between atoms: _332  and  _334
REMARK  150  A    between atoms: _334  and  _335
REMARK  151  A    between atoms: _334  and  _337
REMARK  152  A    between atoms: _337  and  _338
REMARK  153  A    between atoms: _344  and  _346
REMARK  154  A    between atoms: _346  and  _347
REMARK  155  A    between atoms: _349  and  _351
REMARK  156  A    between atoms: _351  and  _352
REMARK  157  A    between atoms: _351  and  _354
REMARK  158  A    between atoms: _357  and  _359
REMARK  159  A    between atoms: _359  and  _360
REMARK  160  A    between atoms: _362  and  _364
REMARK  161  A    between atoms: _364  and  _365
REMARK  162  A    between atoms: _364  and  _367
REMARK  163  A    between atoms: _367  and  _368
REMARK  164  A    between atoms: _374  and  _376
REMARK  165  A    between atoms: _376  and  _377
REMARK  166  A    between atoms: _376  and  _379
REMARK  167  A    between atoms: _379  and  _380
REMARK  168  A    between atoms: _385  and  _386
REMARK  169  A    between atoms: _388  and  _390
REMARK  170  A    between atoms: _390  and  _391
REMARK  171  A    between atoms: _390  and  _393
REMARK  172  A    between atoms: _393  and  _394
REMARK  173  A    between atoms: _396  and  _398
REMARK  174  A    between atoms: _398  and  _399
REMARK  175  A    between atoms: _398  and  _401
REMARK  176  A    between atoms: _404  and  _406
REMARK  177  A    between atoms: _406  and  _407
REMARK  178  A    between atoms: _406  and  _409
REMARK  179  A    between atoms: _409  and  _410
REMARK  180  A    between atoms: _413  and  _415
REMARK  181  A    between atoms: _415  and  _416
REMARK  182  A    between atoms: _415  and  _418
REMARK  183  A    between atoms: _421  and  _423
REMARK  184  A    between atoms: _423  and  _424
REMARK  185  A    between atoms: _423  and  _426
REMARK  186  A    between atoms: _426  and  _427
REMARK  187  A    between atoms: _430  and  _432
REMARK  188  A    between atoms: _432  and  _433
REMARK  189  A    between atoms: _432  and  _435
REMARK  190  A    between atoms: _435  and  _436
REMARK  191  A    between atoms: _439  and  _441
REMARK  192  A    between atoms: _441  and  _442
REMARK  193  A    between atoms: _441  and  _444
REMARK  194  A    between atoms: _444  and  _445
REMARK  195  A    between atoms: _445  and  _446
REMARK  196  A    between atoms: _446  and  _447
REMARK  197  A    between atoms: _447  and  _448
REMARK  198  A    between atoms: _452  and  _454
REMARK  199  A    between atoms: _454  and  _455
REMARK  200  A    between atoms: _454  and  _457
REMARK  201  A    between atoms: _457  and  _458
REMARK  202  A    between atoms: _463  and  _465
REMARK  203  A    between atoms: _465  and  _466
REMARK  204  A    between atoms: _465  and  _468
REMARK  205  A    between atoms: _468  and  _469
REMARK  206  A    between atoms: _479  and  _481
REMARK  207  A    between atoms: _481  and  _482
REMARK  208  A    between atoms: _484  and  _486
REMARK  209  A    between atoms: _486  and  _487
REMARK  210  A    between atoms: _486  and  _489
REMARK  211  A    between atoms: _489  and  _490
REMARK  212  A    between atoms: _493  and  _495
REMARK  213  A    between atoms: _495  and  _496
REMARK  214  A    between atoms: _495  and  _498
REMARK  215  A    between atoms: _498  and  _499
REMARK  216  A    between atoms: _499  and  _500
REMARK  217  A    between atoms: _500  and  _501
REMARK  218  A    between atoms: _501  and  _502
REMARK  219  A    between atoms: _506  and  _508
REMARK  220  A    between atoms: _508  and  _509
REMARK  221  A    between atoms: _508  and  _511
REMARK                            x       y       z     vdW  Elec       q    Type
REMARK                         _______ _______ _______ _____ _____    ______ ____
ROOT
ATOM      1  O   HOH     1     -33.788  22.051 -23.937  0.00  0.00    +0.000 OA
ENDROOT
TORSDOF 0
REMARK  Name = ../refined-set-2016/3wha/3wha_pocket.pdb
REMARK  221 active torsions:
REMARK  status: ('A' for Active; 'I' for Inactive)
REMARK    1  A    between atoms: _1  and  _3
REMARK    2  A    between atoms: _3  and  _4
REMARK    3  A    between atoms: _3  and  _6
REMARK    4  A    between atoms: _6  and  _7
REMARK    5  A    between atoms: _10  and  _12
REMARK    6  A    between atoms: _12  and  _13
REMARK    7  A    between atoms: _12  and  _15
REMARK    8  A    between atoms: _15  and  _16
REMARK    9  A    between atoms: _19  and  _21
REMARK   10  A    between atoms: _21  and  _22
REMARK   11  A    between atoms: _21  and  _24
REMARK   12  A    between atoms: _24  and  _25
REMARK   13  A    between atoms: _25  and  _26
REMARK   14  A    between atoms: _29  and  _31
REMARK   15  A    between atoms: _31  and  _32
REMARK   16  A    between atoms: _31  and  _34
REMARK   17  A    between atoms: _34  and  _35
REMARK   18  A    between atoms: _38  and  _40
REMARK   19  A    between atoms: _40  and  _41
REMARK   20  A    between atoms: _40  and  _43
REMARK   21  A    between atoms: _43  and  _44
REMARK   22  A    between atoms: _47  and  _49
REMARK   23  A    between atoms: _49  and  _50
REMARK   24  A    between atoms: _49  and  _52
REMARK   25  A    between atoms: _52  and  _53
REMARK   26  A    between atoms: _55  and  _57
REMARK   27  A    between atoms: _57  and  _58
REMARK   28  A    between atoms: _57  and  _60
REMARK   29  A    between atoms: _60  and  _61
REMARK   30  A    between atoms: _66  and  _68
REMARK   31  A    between atoms: _68  and  _69
REMARK   32  A    between atoms: _68  and  _71
REMARK   33  A    between atoms: _71  and  _72
REMARK   34  A    between atoms: _74  and  _76
REMARK   35  A    between atoms: _76  and  _77
REMARK   36  A    between atoms: _76  and  _79
REMARK   37  A    between atoms: _79  and  _80
REMARK   38  A    between atoms: _82  and  _84
REMARK   39  A    between atoms: _84  and  _85
REMARK   40  A    between atoms: _84  and  _87
REMARK   41  A    between atoms: _87  and  _88
REMARK   42  A    between atoms: _91  and  _93
REMARK   43  A    between atoms: _93  and  _94
REMARK   44  A    between atoms: _97  and  _99
REMARK   45  A    between atoms: _99  and  _100
REMARK   46  A    between atoms: _99  and  _102
REMARK   47  A    between atoms: _102  and  _103
REMARK   48  A    between atoms: _106  and  _108
REMARK   49  A    between atoms: _108  and  _109
REMARK   50  A    between atoms: _108  and  _111
REMARK   51  A    between atoms: _111  and  _112
REMARK   52  A    between atoms: _115  and  _117
REMARK   53  A    between atoms: _117  and  _118
REMARK   54  A    between atoms: _117  and  _120
REMARK   55  A    between atoms: _120  and  _121
REMARK   56  A    between atoms: _121  and  _122
REMARK   57  A    between atoms: _122  and  _123
REMARK   58  A    between atoms: _123  and  _124
REMARK   59  A    between atoms: _128  and  _130
REMARK   60  A    between atoms: _130  and  _131
REMARK   61  A    between atoms: _130  and  _133
REMARK   62  A    between atoms: _133  and  _134
REMARK   63  A    between atoms: _137  and  _139
REMARK   64  A    between atoms: _139  and  _140
REMARK   65  A    between atoms: _139  and  _142
REMARK   66  A    between atoms: _142  and  _143
REMARK   67  A    between atoms: _143  and  _144
REMARK   68  A    between atoms: _147  and  _149
REMARK   69  A    between atoms: _149  and  _150
REMARK   70  A    between atoms: _149  and  _152
REMARK   71  A    between atoms: _152  and  _153
REMARK   72  A    between atoms: _156  and  _158
REMARK   73  A    between atoms: _158  and  _159
REMARK   74  A    between atoms: _158  and  _161
REMARK   75  A    between atoms: _164  and  _166
REMARK   76  A    between atoms: _166  and  _167
REMARK   77  A    between atoms: _166  and  _169
REMARK   78  A    between atoms: _169  and  _170
REMARK   79  A    between atoms: _173  and  _175
REMARK   80  A    between atoms: _175  and  _176
REMARK   81  A    between atoms: _175  and  _178
REMARK   82  A    between atoms: _178  and  _179
REMARK   83  A    between atoms: _182  and  _184
REMARK   84  A    between atoms: _184  and  _185
REMARK   85  A    between atoms: _187  and  _189
REMARK   86  A    between atoms: _189  and  _190
REMARK   87  A    between atoms: _189  and  _192
REMARK   88  A    between atoms: _192  and  _193
REMARK   89  A    between atoms: _196  and  _198
REMARK   90  A    between atoms: _198  and  _199
REMARK   91  A    between atoms: _201  and  _203
REMARK   92  A    between atoms: _203  and  _204
REMARK   93  A    between atoms: _203  and  _206
REMARK   94  A    between atoms: _206  and  _207
REMARK   95  A    between atoms: _207  and  _208
REMARK   96  A    between atoms: _210  and  _212
REMARK   97  A    between atoms: _212  and  _213
REMARK   98  A    between atoms: _212  and  _215
REMARK   99  A    between atoms: _215  and  _216
REMARK  100  A    between atoms: _219  and  _221
REMARK  101  A    between atoms: _221  and  _222
REMARK  102  A    between atoms: _221  and  _224
REMARK  103  A    between atoms: _224  and  _225
REMARK  104  A    between atoms: _228  and  _230
REMARK  105  A    between atoms: _230  and  _231
REMARK  106  A    between atoms: _230  and  _233
REMARK  107  A    between atoms: _233  and  _234
REMARK  108  A    between atoms: _237  and  _239
REMARK  109  A    between atoms: _239  and  _240
REMARK  110  A    between atoms: _239  and  _242
REMARK  111  A    between atoms: _242  and  _243
REMARK  112  A    between atoms: _248  and  _250
REMARK  113  A    between atoms: _250  and  _251
REMARK  114  A    between atoms: _250  and  _253
REMARK  115  A    between atoms: _253  and  _254
REMARK  116  A    between atoms: _259  and  _261
REMARK  117  A    between atoms: _261  and  _262
REMARK  118  A    between atoms: _261  and  _264
REMARK  119  A    between atoms: _264  and  _265
REMARK  120  A    between atoms: _268  and  _270
REMARK  121  A    between atoms: _270  and  _271
REMARK  122  A    between atoms: _273  and  _275
REMARK  123  A    between atoms: _275  and  _276
REMARK  124  A    between atoms: _275  and  _278
REMARK  125  A    between atoms: _278  and  _279
REMARK  126  A    between atoms: _282  and  _284
REMARK  127  A    between atoms: _284  and  _285
REMARK  128  A    between atoms: _284  and  _287
REMARK  129  A    between atoms: _287  and  _288
REMARK  130  A    between atoms: _291  and  _293
REMARK  131  A    between atoms: _293  and  _294
REMARK  132  A    between atoms: _297  and  _299
REMARK  133  A    between atoms: _299  and  _300
REMARK  134  A    between atoms: _299  and  _302
REMARK  135  A    between atoms: _302  and  _303
REMARK  136  A    between atoms: _303  and  _304
REMARK  137  A    between atoms: _304  and  _305
REMARK  138  A    between atoms: _305  and  _306
REMARK  139  A    between atoms: _310  and  _312
REMARK  140  A    between atoms: _312  and  _313
REMARK  141  A    between atoms: _312  and  _315
REMARK  142  A    between atoms: _315  and  _316
REMARK  143  A    between atoms: _318  and  _320
REMARK  144  A    between atoms: _320  and  _321
REMARK  145  A    between atoms: _323  and  _325
REMARK  146  A    between atoms: _325  and  _326
REMARK  147  A    between atoms: _325  and  _328
REMARK  148  A    between atoms: _328  and  _329
REMARK  149  A    between atoms: _332  and  _334
REMARK  150  A    between atoms: _334  and  _335
REMARK  151  A    between atoms: _334  and  _337
REMARK  152  A    between atoms: _337  and  _338
REMARK  153  A    between atoms: _344  and  _346
REMARK  154  A    between atoms: _346  and  _347
REMARK  155  A    between atoms: _349  and  _351
REMARK  156  A    between atoms: _351  and  _352
REMARK  157  A    between atoms: _351  and  _354
REMARK  158  A    between atoms: _357  and  _359
REMARK  159  A    between atoms: _359  and  _360
REMARK  160  A    between atoms: _362  and  _364
REMARK  161  A    between atoms: _364  and  _365
REMARK  162  A    between atoms: _364  and  _367
REMARK  163  A    between atoms: _367  and  _368
REMARK  164  A    between atoms: _374  and  _376
REMARK  165  A    between atoms: _376  and  _377
REMARK  166  A    between atoms: _376  and  _379
REMARK  167  A    between atoms: _379  and  _380
REMARK  168  A    between atoms: _385  and  _386
REMARK  169  A    between atoms: _388  and  _390
REMARK  170  A    between atoms: _390  and  _391
REMARK  171  A    between atoms: _390  and  _393
REMARK  172  A    between atoms: _393  and  _394
REMARK  173  A    between atoms: _396  and  _398
REMARK  174  A    between atoms: _398  and  _399
REMARK  175  A    between atoms: _398  and  _401
REMARK  176  A    between atoms: _404  and  _406
REMARK  177  A    between atoms: _406  and  _407
REMARK  178  A    between atoms: _406  and  _409
REMARK  179  A    between atoms: _409  and  _410
REMARK  180  A    between atoms: _413  and  _415
REMARK  181  A    between atoms: _415  and  _416
REMARK  182  A    between atoms: _415  and  _418
REMARK  183  A    between atoms: _421  and  _423
REMARK  184  A    between atoms: _423  and  _424
REMARK  185  A    between atoms: _423  and  _426
REMARK  186  A    between atoms: _426  and  _427
REMARK  187  A    between atoms: _430  and  _432
REMARK  188  A    between atoms: _432  and  _433
REMARK  189  A    between atoms: _432  and  _435
REMARK  190  A    between atoms: _435  and  _436
REMARK  191  A    between atoms: _439  and  _441
REMARK  192  A    between atoms: _441  and  _442
REMARK  193  A    between atoms: _441  and  _444
REMARK  194  A    between atoms: _444  and  _445
REMARK  195  A    between atoms: _445  and  _446
REMARK  196  A    between atoms: _446  and  _447
REMARK  197  A    between atoms: _447  and  _448
REMARK  198  A    between atoms: _452  and  _454
REMARK  199  A    between atoms: _454  and  _455
REMARK  200  A    between atoms: _454  and  _457
REMARK  201  A    between atoms: _457  and  _458
REMARK  202  A    between atoms: _463  and  _465
REMARK  203  A    between atoms: _465  and  _466
REMARK  204  A    between atoms: _465  and  _468
REMARK  205  A    between atoms: _468  and  _469
REMARK  206  A    between atoms: _479  and  _481
REMARK  207  A    between atoms: _481  and  _482
REMARK  208  A    between atoms: _484  and  _486
REMARK  209  A    between atoms: _486  and  _487
REMARK  210  A    between atoms: _486  and  _489
REMARK  211  A    between atoms: _489  and  _490
REMARK  212  A    between atoms: _493  and  _495
REMARK  213  A    between atoms: _495  and  _496
REMARK  214  A    between atoms: _495  and  _498
REMARK  215  A    between atoms: _498  and  _499
REMARK  216  A    between atoms: _499  and  _500
REMARK  217  A    between atoms: _500  and  _501
REMARK  218  A    between atoms: _501  and  _502
REMARK  219  A    between atoms: _506  and  _508
REMARK  220  A    between atoms: _508  and  _509
REMARK  221  A    between atoms: _508  and  _511
REMARK                            x       y       z     vdW  Elec       q    Type
REMARK                         _______ _______ _______ _____ _____    ______ ____
ROOT
ATOM      1  O   HOH     1     -34.991  26.825 -24.400  0.00  0.00    +0.000 OA
ENDROOT
TORSDOF 0
REMARK  Name = ../refined-set-2016/3wha/3wha_pocket.pdb
REMARK  221 active torsions:
REMARK  status: ('A' for Active; 'I' for Inactive)
REMARK    1  A    between atoms: _1  and  _3
REMARK    2  A    between atoms: _3  and  _4
REMARK    3  A    between atoms: _3  and  _6
REMARK    4  A    between atoms: _6  and  _7
REMARK    5  A    between atoms: _10  and  _12
REMARK    6  A    between atoms: _12  and  _13
REMARK    7  A    between atoms: _12  and  _15
REMARK    8  A    between atoms: _15  and  _16
REMARK    9  A    between atoms: _19  and  _21
REMARK   10  A    between atoms: _21  and  _22
REMARK   11  A    between atoms: _21  and  _24
REMARK   12  A    between atoms: _24  and  _25
REMARK   13  A    between atoms: _25  and  _26
REMARK   14  A    between atoms: _29  and  _31
REMARK   15  A    between atoms: _31  and  _32
REMARK   16  A    between atoms: _31  and  _34
REMARK   17  A    between atoms: _34  and  _35
REMARK   18  A    between atoms: _38  and  _40
REMARK   19  A    between atoms: _40  and  _41
REMARK   20  A    between atoms: _40  and  _43
REMARK   21  A    between atoms: _43  and  _44
REMARK   22  A    between atoms: _47  and  _49
REMARK   23  A    between atoms: _49  and  _50
REMARK   24  A    between atoms: _49  and  _52
REMARK   25  A    between atoms: _52  and  _53
REMARK   26  A    between atoms: _55  and  _57
REMARK   27  A    between atoms: _57  and  _58
REMARK   28  A    between atoms: _57  and  _60
REMARK   29  A    between atoms: _60  and  _61
REMARK   30  A    between atoms: _66  and  _68
REMARK   31  A    between atoms: _68  and  _69
REMARK   32  A    between atoms: _68  and  _71
REMARK   33  A    between atoms: _71  and  _72
REMARK   34  A    between atoms: _74  and  _76
REMARK   35  A    between atoms: _76  and  _77
REMARK   36  A    between atoms: _76  and  _79
REMARK   37  A    between atoms: _79  and  _80
REMARK   38  A    between atoms: _82  and  _84
REMARK   39  A    between atoms: _84  and  _85
REMARK   40  A    between atoms: _84  and  _87
REMARK   41  A    between atoms: _87  and  _88
REMARK   42  A    between atoms: _91  and  _93
REMARK   43  A    between atoms: _93  and  _94
REMARK   44  A    between atoms: _97  and  _99
REMARK   45  A    between atoms: _99  and  _100
REMARK   46  A    between atoms: _99  and  _102
REMARK   47  A    between atoms: _102  and  _103
REMARK   48  A    between atoms: _106  and  _108
REMARK   49  A    between atoms: _108  and  _109
REMARK   50  A    between atoms: _108  and  _111
REMARK   51  A    between atoms: _111  and  _112
REMARK   52  A    between atoms: _115  and  _117
REMARK   53  A    between atoms: _117  and  _118
REMARK   54  A    between atoms: _117  and  _120
REMARK   55  A    between atoms: _120  and  _121
REMARK   56  A    between atoms: _121  and  _122
REMARK   57  A    between atoms: _122  and  _123
REMARK   58  A    between atoms: _123  and  _124
REMARK   59  A    between atoms: _128  and  _130
REMARK   60  A    between atoms: _130  and  _131
REMARK   61  A    between atoms: _130  and  _133
REMARK   62  A    between atoms: _133  and  _134
REMARK   63  A    between atoms: _137  and  _139
REMARK   64  A    between atoms: _139  and  _140
REMARK   65  A    between atoms: _139  and  _142
REMARK   66  A    between atoms: _142  and  _143
REMARK   67  A    between atoms: _143  and  _144
REMARK   68  A    between atoms: _147  and  _149
REMARK   69  A    between atoms: _149  and  _150
REMARK   70  A    between atoms: _149  and  _152
REMARK   71  A    between atoms: _152  and  _153
REMARK   72  A    between atoms: _156  and  _158
REMARK   73  A    between atoms: _158  and  _159
REMARK   74  A    between atoms: _158  and  _161
REMARK   75  A    between atoms: _164  and  _166
REMARK   76  A    between atoms: _166  and  _167
REMARK   77  A    between atoms: _166  and  _169
REMARK   78  A    between atoms: _169  and  _170
REMARK   79  A    between atoms: _173  and  _175
REMARK   80  A    between atoms: _175  and  _176
REMARK   81  A    between atoms: _175  and  _178
REMARK   82  A    between atoms: _178  and  _179
REMARK   83  A    between atoms: _182  and  _184
REMARK   84  A    between atoms: _184  and  _185
REMARK   85  A    between atoms: _187  and  _189
REMARK   86  A    between atoms: _189  and  _190
REMARK   87  A    between atoms: _189  and  _192
REMARK   88  A    between atoms: _192  and  _193
REMARK   89  A    between atoms: _196  and  _198
REMARK   90  A    between atoms: _198  and  _199
REMARK   91  A    between atoms: _201  and  _203
REMARK   92  A    between atoms: _203  and  _204
REMARK   93  A    between atoms: _203  and  _206
REMARK   94  A    between atoms: _206  and  _207
REMARK   95  A    between atoms: _207  and  _208
REMARK   96  A    between atoms: _210  and  _212
REMARK   97  A    between atoms: _212  and  _213
REMARK   98  A    between atoms: _212  and  _215
REMARK   99  A    between atoms: _215  and  _216
REMARK  100  A    between atoms: _219  and  _221
REMARK  101  A    between atoms: _221  and  _222
REMARK  102  A    between atoms: _221  and  _224
REMARK  103  A    between atoms: _224  and  _225
REMARK  104  A    between atoms: _228  and  _230
REMARK  105  A    between atoms: _230  and  _231
REMARK  106  A    between atoms: _230  and  _233
REMARK  107  A    between atoms: _233  and  _234
REMARK  108  A    between atoms: _237  and  _239
REMARK  109  A    between atoms: _239  and  _240
REMARK  110  A    between atoms: _239  and  _242
REMARK  111  A    between atoms: _242  and  _243
REMARK  112  A    between atoms: _248  and  _250
REMARK  113  A    between atoms: _250  and  _251
REMARK  114  A    between atoms: _250  and  _253
REMARK  115  A    between atoms: _253  and  _254
REMARK  116  A    between atoms: _259  and  _261
REMARK  117  A    between atoms: _261  and  _262
REMARK  118  A    between atoms: _261  and  _264
REMARK  119  A    between atoms: _264  and  _265
REMARK  120  A    between atoms: _268  and  _270
REMARK  121  A    between atoms: _270  and  _271
REMARK  122  A    between atoms: _273  and  _275
REMARK  123  A    between atoms: _275  and  _276
REMARK  124  A    between atoms: _275  and  _278
REMARK  125  A    between atoms: _278  and  _279
REMARK  126  A    between atoms: _282  and  _284
REMARK  127  A    between atoms: _284  and  _285
REMARK  128  A    between atoms: _284  and  _287
REMARK  129  A    between atoms: _287  and  _288
REMARK  130  A    between atoms: _291  and  _293
REMARK  131  A    between atoms: _293  and  _294
REMARK  132  A    between atoms: _297  and  _299
REMARK  133  A    between atoms: _299  and  _300
REMARK  134  A    between atoms: _299  and  _302
REMARK  135  A    between atoms: _302  and  _303
REMARK  136  A    between atoms: _303  and  _304
REMARK  137  A    between atoms: _304  and  _305
REMARK  138  A    between atoms: _305  and  _306
REMARK  139  A    between atoms: _310  and  _312
REMARK  140  A    between atoms: _312  and  _313
REMARK  141  A    between atoms: _312  and  _315
REMARK  142  A    between atoms: _315  and  _316
REMARK  143  A    between atoms: _318  and  _320
REMARK  144  A    between atoms: _320  and  _321
REMARK  145  A    between atoms: _323  and  _325
REMARK  146  A    between atoms: _325  and  _326
REMARK  147  A    between atoms: _325  and  _328
REMARK  148  A    between atoms: _328  and  _329
REMARK  149  A    between atoms: _332  and  _334
REMARK  150  A    between atoms: _334  and  _335
REMARK  151  A    between atoms: _334  and  _337
REMARK  152  A    between atoms: _337  and  _338
REMARK  153  A    between atoms: _344  and  _346
REMARK  154  A    between atoms: _346  and  _347
REMARK  155  A    between atoms: _349  and  _351
REMARK  156  A    between atoms: _351  and  _352
REMARK  157  A    between atoms: _351  and  _354
REMARK  158  A    between atoms: _357  and  _359
REMARK  159  A    between atoms: _359  and  _360
REMARK  160  A    between atoms: _362  and  _364
REMARK  161  A    between atoms: _364  and  _365
REMARK  162  A    between atoms: _364  and  _367
REMARK  163  A    between atoms: _367  and  _368
REMARK  164  A    between atoms: _374  and  _376
REMARK  165  A    between atoms: _376  and  _377
REMARK  166  A    between atoms: _376  and  _379
REMARK  167  A    between atoms: _379  and  _380
REMARK  168  A    between atoms: _385  and  _386
REMARK  169  A    between atoms: _388  and  _390
REMARK  170  A    between atoms: _390  and  _391
REMARK  171  A    between atoms: _390  and  _393
REMARK  172  A    between atoms: _393  and  _394
REMARK  173  A    between atoms: _396  and  _398
REMARK  174  A    between atoms: _398  and  _399
REMARK  175  A    between atoms: _398  and  _401
REMARK  176  A    between atoms: _404  and  _406
REMARK  177  A    between atoms: _406  and  _407
REMARK  178  A    between atoms: _406  and  _409
REMARK  179  A    between atoms: _409  and  _410
REMARK  180  A    between atoms: _413  and  _415
REMARK  181  A    between atoms: _415  and  _416
REMARK  182  A    between atoms: _415  and  _418
REMARK  183  A    between atoms: _421  and  _423
REMARK  184  A    between atoms: _423  and  _424
REMARK  185  A    between atoms: _423  and  _426
REMARK  186  A    between atoms: _426  and  _427
REMARK  187  A    between atoms: _430  and  _432
REMARK  188  A    between atoms: _432  and  _433
REMARK  189  A    between atoms: _432  and  _435
REMARK  190  A    between atoms: _435  and  _436
REMARK  191  A    between atoms: _439  and  _441
REMARK  192  A    between atoms: _441  and  _442
REMARK  193  A    between atoms: _441  and  _444
REMARK  194  A    between atoms: _444  and  _445
REMARK  195  A    between atoms: _445  and  _446
REMARK  196  A    between atoms: _446  and  _447
REMARK  197  A    between atoms: _447  and  _448
REMARK  198  A    between atoms: _452  and  _454
REMARK  199  A    between atoms: _454  and  _455
REMARK  200  A    between atoms: _454  and  _457
REMARK  201  A    between atoms: _457  and  _458
REMARK  202  A    between atoms: _463  and  _465
REMARK  203  A    between atoms: _465  and  _466
REMARK  204  A    between atoms: _465  and  _468
REMARK  205  A    between atoms: _468  and  _469
REMARK  206  A    between atoms: _479  and  _481
REMARK  207  A    between atoms: _481  and  _482
REMARK  208  A    between atoms: _484  and  _486
REMARK  209  A    between atoms: _486  and  _487
REMARK  210  A    between atoms: _486  and  _489
REMARK  211  A    between atoms: _489  and  _490
REMARK  212  A    between atoms: _493  and  _495
REMARK  213  A    between atoms: _495  and  _496
REMARK  214  A    between atoms: _495  and  _498
REMARK  215  A    between atoms: _498  and  _499
REMARK  216  A    between atoms: _499  and  _500
REMARK  217  A    between atoms: _500  and  _501
REMARK  218  A    between atoms: _501  and  _502
REMARK  219  A    between atoms: _506  and  _508
REMARK  220  A    between atoms: _508  and  _509
REMARK  221  A    between atoms: _508  and  _511
REMARK                            x       y       z     vdW  Elec       q    Type
REMARK                         _______ _______ _______ _____ _____    ______ ____
ROOT
ATOM      1  O   HOH     1     -27.918  18.824 -26.626  0.00  0.00    +0.000 OA
ENDROOT
TORSDOF 0
REMARK  Name = ../refined-set-2016/3wha/3wha_pocket.pdb
REMARK  221 active torsions:
REMARK  status: ('A' for Active; 'I' for Inactive)
REMARK    1  A    between atoms: _1  and  _3
REMARK    2  A    between atoms: _3  and  _4
REMARK    3  A    between atoms: _3  and  _6
REMARK    4  A    between atoms: _6  and  _7
REMARK    5  A    between atoms: _10  and  _12
REMARK    6  A    between atoms: _12  and  _13
REMARK    7  A    between atoms: _12  and  _15
REMARK    8  A    between atoms: _15  and  _16
REMARK    9  A    between atoms: _19  and  _21
REMARK   10  A    between atoms: _21  and  _22
REMARK   11  A    between atoms: _21  and  _24
REMARK   12  A    between atoms: _24  and  _25
REMARK   13  A    between atoms: _25  and  _26
REMARK   14  A    between atoms: _29  and  _31
REMARK   15  A    between atoms: _31  and  _32
REMARK   16  A    between atoms: _31  and  _34
REMARK   17  A    between atoms: _34  and  _35
REMARK   18  A    between atoms: _38  and  _40
REMARK   19  A    between atoms: _40  and  _41
REMARK   20  A    between atoms: _40  and  _43
REMARK   21  A    between atoms: _43  and  _44
REMARK   22  A    between atoms: _47  and  _49
REMARK   23  A    between atoms: _49  and  _50
REMARK   24  A    between atoms: _49  and  _52
REMARK   25  A    between atoms: _52  and  _53
REMARK   26  A    between atoms: _55  and  _57
REMARK   27  A    between atoms: _57  and  _58
REMARK   28  A    between atoms: _57  and  _60
REMARK   29  A    between atoms: _60  and  _61
REMARK   30  A    between atoms: _66  and  _68
REMARK   31  A    between atoms: _68  and  _69
REMARK   32  A    between atoms: _68  and  _71
REMARK   33  A    between atoms: _71  and  _72
REMARK   34  A    between atoms: _74  and  _76
REMARK   35  A    between atoms: _76  and  _77
REMARK   36  A    between atoms: _76  and  _79
REMARK   37  A    between atoms: _79  and  _80
REMARK   38  A    between atoms: _82  and  _84
REMARK   39  A    between atoms: _84  and  _85
REMARK   40  A    between atoms: _84  and  _87
REMARK   41  A    between atoms: _87  and  _88
REMARK   42  A    between atoms: _91  and  _93
REMARK   43  A    between atoms: _93  and  _94
REMARK   44  A    between atoms: _97  and  _99
REMARK   45  A    between atoms: _99  and  _100
REMARK   46  A    between atoms: _99  and  _102
REMARK   47  A    between atoms: _102  and  _103
REMARK   48  A    between atoms: _106  and  _108
REMARK   49  A    between atoms: _108  and  _109
REMARK   50  A    between atoms: _108  and  _111
REMARK   51  A    between atoms: _111  and  _112
REMARK   52  A    between atoms: _115  and  _117
REMARK   53  A    between atoms: _117  and  _118
REMARK   54  A    between atoms: _117  and  _120
REMARK   55  A    between atoms: _120  and  _121
REMARK   56  A    between atoms: _121  and  _122
REMARK   57  A    between atoms: _122  and  _123
REMARK   58  A    between atoms: _123  and  _124
REMARK   59  A    between atoms: _128  and  _130
REMARK   60  A    between atoms: _130  and  _131
REMARK   61  A    between atoms: _130  and  _133
REMARK   62  A    between atoms: _133  and  _134
REMARK   63  A    between atoms: _137  and  _139
REMARK   64  A    between atoms: _139  and  _140
REMARK   65  A    between atoms: _139  and  _142
REMARK   66  A    between atoms: _142  and  _143
REMARK   67  A    between atoms: _143  and  _144
REMARK   68  A    between atoms: _147  and  _149
REMARK   69  A    between atoms: _149  and  _150
REMARK   70  A    between atoms: _149  and  _152
REMARK   71  A    between atoms: _152  and  _153
REMARK   72  A    between atoms: _156  and  _158
REMARK   73  A    between atoms: _158  and  _159
REMARK   74  A    between atoms: _158  and  _161
REMARK   75  A    between atoms: _164  and  _166
REMARK   76  A    between atoms: _166  and  _167
REMARK   77  A    between atoms: _166  and  _169
REMARK   78  A    between atoms: _169  and  _170
REMARK   79  A    between atoms: _173  and  _175
REMARK   80  A    between atoms: _175  and  _176
REMARK   81  A    between atoms: _175  and  _178
REMARK   82  A    between atoms: _178  and  _179
REMARK   83  A    between atoms: _182  and  _184
REMARK   84  A    between atoms: _184  and  _185
REMARK   85  A    between atoms: _187  and  _189
REMARK   86  A    between atoms: _189  and  _190
REMARK   87  A    between atoms: _189  and  _192
REMARK   88  A    between atoms: _192  and  _193
REMARK   89  A    between atoms: _196  and  _198
REMARK   90  A    between atoms: _198  and  _199
REMARK   91  A    between atoms: _201  and  _203
REMARK   92  A    between atoms: _203  and  _204
REMARK   93  A    between atoms: _203  and  _206
REMARK   94  A    between atoms: _206  and  _207
REMARK   95  A    between atoms: _207  and  _208
REMARK   96  A    between atoms: _210  and  _212
REMARK   97  A    between atoms: _212  and  _213
REMARK   98  A    between atoms: _212  and  _215
REMARK   99  A    between atoms: _215  and  _216
REMARK  100  A    between atoms: _219  and  _221
REMARK  101  A    between atoms: _221  and  _222
REMARK  102  A    between atoms: _221  and  _224
REMARK  103  A    between atoms: _224  and  _225
REMARK  104  A    between atoms: _228  and  _230
REMARK  105  A    between atoms: _230  and  _231
REMARK  106  A    between atoms: _230  and  _233
REMARK  107  A    between atoms: _233  and  _234
REMARK  108  A    between atoms: _237  and  _239
REMARK  109  A    between atoms: _239  and  _240
REMARK  110  A    between atoms: _239  and  _242
REMARK  111  A    between atoms: _242  and  _243
REMARK  112  A    between atoms: _248  and  _250
REMARK  113  A    between atoms: _250  and  _251
REMARK  114  A    between atoms: _250  and  _253
REMARK  115  A    between atoms: _253  and  _254
REMARK  116  A    between atoms: _259  and  _261
REMARK  117  A    between atoms: _261  and  _262
REMARK  118  A    between atoms: _261  and  _264
REMARK  119  A    between atoms: _264  and  _265
REMARK  120  A    between atoms: _268  and  _270
REMARK  121  A    between atoms: _270  and  _271
REMARK  122  A    between atoms: _273  and  _275
REMARK  123  A    between atoms: _275  and  _276
REMARK  124  A    between atoms: _275  and  _278
REMARK  125  A    between atoms: _278  and  _279
REMARK  126  A    between atoms: _282  and  _284
REMARK  127  A    between atoms: _284  and  _285
REMARK  128  A    between atoms: _284  and  _287
REMARK  129  A    between atoms: _287  and  _288
REMARK  130  A    between atoms: _291  and  _293
REMARK  131  A    between atoms: _293  and  _294
REMARK  132  A    between atoms: _297  and  _299
REMARK  133  A    between atoms: _299  and  _300
REMARK  134  A    between atoms: _299  and  _302
REMARK  135  A    between atoms: _302  and  _303
REMARK  136  A    between atoms: _303  and  _304
REMARK  137  A    between atoms: _304  and  _305
REMARK  138  A    between atoms: _305  and  _306
REMARK  139  A    between atoms: _310  and  _312
REMARK  140  A    between atoms: _312  and  _313
REMARK  141  A    between atoms: _312  and  _315
REMARK  142  A    between atoms: _315  and  _316
REMARK  143  A    between atoms: _318  and  _320
REMARK  144  A    between atoms: _320  and  _321
REMARK  145  A    between atoms: _323  and  _325
REMARK  146  A    between atoms: _325  and  _326
REMARK  147  A    between atoms: _325  and  _328
REMARK  148  A    between atoms: _328  and  _329
REMARK  149  A    between atoms: _332  and  _334
REMARK  150  A    between atoms: _334  and  _335
REMARK  151  A    between atoms: _334  and  _337
REMARK  152  A    between atoms: _337  and  _338
REMARK  153  A    between atoms: _344  and  _346
REMARK  154  A    between atoms: _346  and  _347
REMARK  155  A    between atoms: _349  and  _351
REMARK  156  A    between atoms: _351  and  _352
REMARK  157  A    between atoms: _351  and  _354
REMARK  158  A    between atoms: _357  and  _359
REMARK  159  A    between atoms: _359  and  _360
REMARK  160  A    between atoms: _362  and  _364
REMARK  161  A    between atoms: _364  and  _365
REMARK  162  A    between atoms: _364  and  _367
REMARK  163  A    between atoms: _367  and  _368
REMARK  164  A    between atoms: _374  and  _376
REMARK  165  A    between atoms: _376  and  _377
REMARK  166  A    between atoms: _376  and  _379
REMARK  167  A    between atoms: _379  and  _380
REMARK  168  A    between atoms: _385  and  _386
REMARK  169  A    between atoms: _388  and  _390
REMARK  170  A    between atoms: _390  and  _391
REMARK  171  A    between atoms: _390  and  _393
REMARK  172  A    between atoms: _393  and  _394
REMARK  173  A    between atoms: _396  and  _398
REMARK  174  A    between atoms: _398  and  _399
REMARK  175  A    between atoms: _398  and  _401
REMARK  176  A    between atoms: _404  and  _406
REMARK  177  A    between atoms: _406  and  _407
REMARK  178  A    between atoms: _406  and  _409
REMARK  179  A    between atoms: _409  and  _410
REMARK  180  A    between atoms: _413  and  _415
REMARK  181  A    between atoms: _415  and  _416
REMARK  182  A    between atoms: _415  and  _418
REMARK  183  A    between atoms: _421  and  _423
REMARK  184  A    between atoms: _423  and  _424
REMARK  185  A    between atoms: _423  and  _426
REMARK  186  A    between atoms: _426  and  _427
REMARK  187  A    between atoms: _430  and  _432
REMARK  188  A    between atoms: _432  and  _433
REMARK  189  A    between atoms: _432  and  _435
REMARK  190  A    between atoms: _435  and  _436
REMARK  191  A    between atoms: _439  and  _441
REMARK  192  A    between atoms: _441  and  _442
REMARK  193  A    between atoms: _441  and  _444
REMARK  194  A    between atoms: _444  and  _445
REMARK  195  A    between atoms: _445  and  _446
REMARK  196  A    between atoms: _446  and  _447
REMARK  197  A    between atoms: _447  and  _448
REMARK  198  A    between atoms: _452  and  _454
REMARK  199  A    between atoms: _454  and  _455
REMARK  200  A    between atoms: _454  and  _457
REMARK  201  A    between atoms: _457  and  _458
REMARK  202  A    between atoms: _463  and  _465
REMARK  203  A    between atoms: _465  and  _466
REMARK  204  A    between atoms: _465  and  _468
REMARK  205  A    between atoms: _468  and  _469
REMARK  206  A    between atoms: _479  and  _481
REMARK  207  A    between atoms: _481  and  _482
REMARK  208  A    between atoms: _484  and  _486
REMARK  209  A    between atoms: _486  and  _487
REMARK  210  A    between atoms: _486  and  _489
REMARK  211  A    between atoms: _489  and  _490
REMARK  212  A    between atoms: _493  and  _495
REMARK  213  A    between atoms: _495  and  _496
REMARK  214  A    between atoms: _495  and  _498
REMARK  215  A    between atoms: _498  and  _499
REMARK  216  A    between atoms: _499  and  _500
REMARK  217  A    between atoms: _500  and  _501
REMARK  218  A    between atoms: _501  and  _502
REMARK  219  A    between atoms: _506  and  _508
REMARK  220  A    between atoms: _508  and  _509
REMARK  221  A    between atoms: _508  and  _511
REMARK                            x       y       z     vdW  Elec       q    Type
REMARK                         _______ _______ _______ _____ _____    ______ ____
ROOT
ATOM      1  O   HOH     1     -31.373  17.013 -24.131  0.00  0.00    +0.000 OA
ENDROOT
TORSDOF 0
REMARK  Name = ../refined-set-2016/3wha/3wha_pocket.pdb
REMARK  221 active torsions:
REMARK  status: ('A' for Active; 'I' for Inactive)
REMARK    1  A    between atoms: _1  and  _3
REMARK    2  A    between atoms: _3  and  _4
REMARK    3  A    between atoms: _3  and  _6
REMARK    4  A    between atoms: _6  and  _7
REMARK    5  A    between atoms: _10  and  _12
REMARK    6  A    between atoms: _12  and  _13
REMARK    7  A    between atoms: _12  and  _15
REMARK    8  A    between atoms: _15  and  _16
REMARK    9  A    between atoms: _19  and  _21
REMARK   10  A    between atoms: _21  and  _22
REMARK   11  A    between atoms: _21  and  _24
REMARK   12  A    between atoms: _24  and  _25
REMARK   13  A    between atoms: _25  and  _26
REMARK   14  A    between atoms: _29  and  _31
REMARK   15  A    between atoms: _31  and  _32
REMARK   16  A    between atoms: _31  and  _34
REMARK   17  A    between atoms: _34  and  _35
REMARK   18  A    between atoms: _38  and  _40
REMARK   19  A    between atoms: _40  and  _41
REMARK   20  A    between atoms: _40  and  _43
REMARK   21  A    between atoms: _43  and  _44
REMARK   22  A    between atoms: _47  and  _49
REMARK   23  A    between atoms: _49  and  _50
REMARK   24  A    between atoms: _49  and  _52
REMARK   25  A    between atoms: _52  and  _53
REMARK   26  A    between atoms: _55  and  _57
REMARK   27  A    between atoms: _57  and  _58
REMARK   28  A    between atoms: _57  and  _60
REMARK   29  A    between atoms: _60  and  _61
REMARK   30  A    between atoms: _66  and  _68
REMARK   31  A    between atoms: _68  and  _69
REMARK   32  A    between atoms: _68  and  _71
REMARK   33  A    between atoms: _71  and  _72
REMARK   34  A    between atoms: _74  and  _76
REMARK   35  A    between atoms: _76  and  _77
REMARK   36  A    between atoms: _76  and  _79
REMARK   37  A    between atoms: _79  and  _80
REMARK   38  A    between atoms: _82  and  _84
REMARK   39  A    between atoms: _84  and  _85
REMARK   40  A    between atoms: _84  and  _87
REMARK   41  A    between atoms: _87  and  _88
REMARK   42  A    between atoms: _91  and  _93
REMARK   43  A    between atoms: _93  and  _94
REMARK   44  A    between atoms: _97  and  _99
REMARK   45  A    between atoms: _99  and  _100
REMARK   46  A    between atoms: _99  and  _102
REMARK   47  A    between atoms: _102  and  _103
REMARK   48  A    between atoms: _106  and  _108
REMARK   49  A    between atoms: _108  and  _109
REMARK   50  A    between atoms: _108  and  _111
REMARK   51  A    between atoms: _111  and  _112
REMARK   52  A    between atoms: _115  and  _117
REMARK   53  A    between atoms: _117  and  _118
REMARK   54  A    between atoms: _117  and  _120
REMARK   55  A    between atoms: _120  and  _121
REMARK   56  A    between atoms: _121  and  _122
REMARK   57  A    between atoms: _122  and  _123
REMARK   58  A    between atoms: _123  and  _124
REMARK   59  A    between atoms: _128  and  _130
REMARK   60  A    between atoms: _130  and  _131
REMARK   61  A    between atoms: _130  and  _133
REMARK   62  A    between atoms: _133  and  _134
REMARK   63  A    between atoms: _137  and  _139
REMARK   64  A    between atoms: _139  and  _140
REMARK   65  A    between atoms: _139  and  _142
REMARK   66  A    between atoms: _142  and  _143
REMARK   67  A    between atoms: _143  and  _144
REMARK   68  A    between atoms: _147  and  _149
REMARK   69  A    between atoms: _149  and  _150
REMARK   70  A    between atoms: _149  and  _152
REMARK   71  A    between atoms: _152  and  _153
REMARK   72  A    between atoms: _156  and  _158
REMARK   73  A    between atoms: _158  and  _159
REMARK   74  A    between atoms: _158  and  _161
REMARK   75  A    between atoms: _164  and  _166
REMARK   76  A    between atoms: _166  and  _167
REMARK   77  A    between atoms: _166  and  _169
REMARK   78  A    between atoms: _169  and  _170
REMARK   79  A    between atoms: _173  and  _175
REMARK   80  A    between atoms: _175  and  _176
REMARK   81  A    between atoms: _175  and  _178
REMARK   82  A    between atoms: _178  and  _179
REMARK   83  A    between atoms: _182  and  _184
REMARK   84  A    between atoms: _184  and  _185
REMARK   85  A    between atoms: _187  and  _189
REMARK   86  A    between atoms: _189  and  _190
REMARK   87  A    between atoms: _189  and  _192
REMARK   88  A    between atoms: _192  and  _193
REMARK   89  A    between atoms: _196  and  _198
REMARK   90  A    between atoms: _198  and  _199
REMARK   91  A    between atoms: _201  and  _203
REMARK   92  A    between atoms: _203  and  _204
REMARK   93  A    between atoms: _203  and  _206
REMARK   94  A    between atoms: _206  and  _207
REMARK   95  A    between atoms: _207  and  _208
REMARK   96  A    between atoms: _210  and  _212
REMARK   97  A    between atoms: _212  and  _213
REMARK   98  A    between atoms: _212  and  _215
REMARK   99  A    between atoms: _215  and  _216
REMARK  100  A    between atoms: _219  and  _221
REMARK  101  A    between atoms: _221  and  _222
REMARK  102  A    between atoms: _221  and  _224
REMARK  103  A    between atoms: _224  and  _225
REMARK  104  A    between atoms: _228  and  _230
REMARK  105  A    between atoms: _230  and  _231
REMARK  106  A    between atoms: _230  and  _233
REMARK  107  A    between atoms: _233  and  _234
REMARK  108  A    between atoms: _237  and  _239
REMARK  109  A    between atoms: _239  and  _240
REMARK  110  A    between atoms: _239  and  _242
REMARK  111  A    between atoms: _242  and  _243
REMARK  112  A    between atoms: _248  and  _250
REMARK  113  A    between atoms: _250  and  _251
REMARK  114  A    between atoms: _250  and  _253
REMARK  115  A    between atoms: _253  and  _254
REMARK  116  A    between atoms: _259  and  _261
REMARK  117  A    between atoms: _261  and  _262
REMARK  118  A    between atoms: _261  and  _264
REMARK  119  A    between atoms: _264  and  _265
REMARK  120  A    between atoms: _268  and  _270
REMARK  121  A    between atoms: _270  and  _271
REMARK  122  A    between atoms: _273  and  _275
REMARK  123  A    between atoms: _275  and  _276
REMARK  124  A    between atoms: _275  and  _278
REMARK  125  A    between atoms: _278  and  _279
REMARK  126  A    between atoms: _282  and  _284
REMARK  127  A    between atoms: _284  and  _285
REMARK  128  A    between atoms: _284  and  _287
REMARK  129  A    between atoms: _287  and  _288
REMARK  130  A    between atoms: _291  and  _293
REMARK  131  A    between atoms: _293  and  _294
REMARK  132  A    between atoms: _297  and  _299
REMARK  133  A    between atoms: _299  and  _300
REMARK  134  A    between atoms: _299  and  _302
REMARK  135  A    between atoms: _302  and  _303
REMARK  136  A    between atoms: _303  and  _304
REMARK  137  A    between atoms: _304  and  _305
REMARK  138  A    between atoms: _305  and  _306
REMARK  139  A    between atoms: _310  and  _312
REMARK  140  A    between atoms: _312  and  _313
REMARK  141  A    between atoms: _312  and  _315
REMARK  142  A    between atoms: _315  and  _316
REMARK  143  A    between atoms: _318  and  _320
REMARK  144  A    between atoms: _320  and  _321
REMARK  145  A    between atoms: _323  and  _325
REMARK  146  A    between atoms: _325  and  _326
REMARK  147  A    between atoms: _325  and  _328
REMARK  148  A    between atoms: _328  and  _329
REMARK  149  A    between atoms: _332  and  _334
REMARK  150  A    between atoms: _334  and  _335
REMARK  151  A    between atoms: _334  and  _337
REMARK  152  A    between atoms: _337  and  _338
REMARK  153  A    between atoms: _344  and  _346
REMARK  154  A    between atoms: _346  and  _347
REMARK  155  A    between atoms: _349  and  _351
REMARK  156  A    between atoms: _351  and  _352
REMARK  157  A    between atoms: _351  and  _354
REMARK  158  A    between atoms: _357  and  _359
REMARK  159  A    between atoms: _359  and  _360
REMARK  160  A    between atoms: _362  and  _364
REMARK  161  A    between atoms: _364  and  _365
REMARK  162  A    between atoms: _364  and  _367
REMARK  163  A    between atoms: _367  and  _368
REMARK  164  A    between atoms: _374  and  _376
REMARK  165  A    between atoms: _376  and  _377
REMARK  166  A    between atoms: _376  and  _379
REMARK  167  A    between atoms: _379  and  _380
REMARK  168  A    between atoms: _385  and  _386
REMARK  169  A    between atoms: _388  and  _390
REMARK  170  A    between atoms: _390  and  _391
REMARK  171  A    between atoms: _390  and  _393
REMARK  172  A    between atoms: _393  and  _394
REMARK  173  A    between atoms: _396  and  _398
REMARK  174  A    between atoms: _398  and  _399
REMARK  175  A    between atoms: _398  and  _401
REMARK  176  A    between atoms: _404  and  _406
REMARK  177  A    between atoms: _406  and  _407
REMARK  178  A    between atoms: _406  and  _409
REMARK  179  A    between atoms: _409  and  _410
REMARK  180  A    between atoms: _413  and  _415
REMARK  181  A    between atoms: _415  and  _416
REMARK  182  A    between atoms: _415  and  _418
REMARK  183  A    between atoms: _421  and  _423
REMARK  184  A    between atoms: _423  and  _424
REMARK  185  A    between atoms: _423  and  _426
REMARK  186  A    between atoms: _426  and  _427
REMARK  187  A    between atoms: _430  and  _432
REMARK  188  A    between atoms: _432  and  _433
REMARK  189  A    between atoms: _432  and  _435
REMARK  190  A    between atoms: _435  and  _436
REMARK  191  A    between atoms: _439  and  _441
REMARK  192  A    between atoms: _441  and  _442
REMARK  193  A    between atoms: _441  and  _444
REMARK  194  A    between atoms: _444  and  _445
REMARK  195  A    between atoms: _445  and  _446
REMARK  196  A    between atoms: _446  and  _447
REMARK  197  A    between atoms: _447  and  _448
REMARK  198  A    between atoms: _452  and  _454
REMARK  199  A    between atoms: _454  and  _455
REMARK  200  A    between atoms: _454  and  _457
REMARK  201  A    between atoms: _457  and  _458
REMARK  202  A    between atoms: _463  and  _465
REMARK  203  A    between atoms: _465  and  _466
REMARK  204  A    between atoms: _465  and  _468
REMARK  205  A    between atoms: _468  and  _469
REMARK  206  A    between atoms: _479  and  _481
REMARK  207  A    between atoms: _481  and  _482
REMARK  208  A    between atoms: _484  and  _486
REMARK  209  A    between atoms: _486  and  _487
REMARK  210  A    between atoms: _486  and  _489
REMARK  211  A    between atoms: _489  and  _490
REMARK  212  A    between atoms: _493  and  _495
REMARK  213  A    between atoms: _495  and  _496
REMARK  214  A    between atoms: _495  and  _498
REMARK  215  A    between atoms: _498  and  _499
REMARK  216  A    between atoms: _499  and  _500
REMARK  217  A    between atoms: _500  and  _501
REMARK  218  A    between atoms: _501  and  _502
REMARK  219  A    between atoms: _506  and  _508
REMARK  220  A    between atoms: _508  and  _509
REMARK  221  A    between atoms: _508  and  _511
REMARK                            x       y       z     vdW  Elec       q    Type
REMARK                         _______ _______ _______ _____ _____    ______ ____
ROOT
ATOM      1  O   HOH     1     -32.154  29.445 -24.198  0.00  0.00    +0.000 OA
ENDROOT
TORSDOF 0
REMARK  Name = ../refined-set-2016/3wha/3wha_pocket.pdb
REMARK  221 active torsions:
REMARK  status: ('A' for Active; 'I' for Inactive)
REMARK    1  A    between atoms: _1  and  _3
REMARK    2  A    between atoms: _3  and  _4
REMARK    3  A    between atoms: _3  and  _6
REMARK    4  A    between atoms: _6  and  _7
REMARK    5  A    between atoms: _10  and  _12
REMARK    6  A    between atoms: _12  and  _13
REMARK    7  A    between atoms: _12  and  _15
REMARK    8  A    between atoms: _15  and  _16
REMARK    9  A    between atoms: _19  and  _21
REMARK   10  A    between atoms: _21  and  _22
REMARK   11  A    between atoms: _21  and  _24
REMARK   12  A    between atoms: _24  and  _25
REMARK   13  A    between atoms: _25  and  _26
REMARK   14  A    between atoms: _29  and  _31
REMARK   15  A    between atoms: _31  and  _32
REMARK   16  A    between atoms: _31  and  _34
REMARK   17  A    between atoms: _34  and  _35
REMARK   18  A    between atoms: _38  and  _40
REMARK   19  A    between atoms: _40  and  _41
REMARK   20  A    between atoms: _40  and  _43
REMARK   21  A    between atoms: _43  and  _44
REMARK   22  A    between atoms: _47  and  _49
REMARK   23  A    between atoms: _49  and  _50
REMARK   24  A    between atoms: _49  and  _52
REMARK   25  A    between atoms: _52  and  _53
REMARK   26  A    between atoms: _55  and  _57
REMARK   27  A    between atoms: _57  and  _58
REMARK   28  A    between atoms: _57  and  _60
REMARK   29  A    between atoms: _60  and  _61
REMARK   30  A    between atoms: _66  and  _68
REMARK   31  A    between atoms: _68  and  _69
REMARK   32  A    between atoms: _68  and  _71
REMARK   33  A    between atoms: _71  and  _72
REMARK   34  A    between atoms: _74  and  _76
REMARK   35  A    between atoms: _76  and  _77
REMARK   36  A    between atoms: _76  and  _79
REMARK   37  A    between atoms: _79  and  _80
REMARK   38  A    between atoms: _82  and  _84
REMARK   39  A    between atoms: _84  and  _85
REMARK   40  A    between atoms: _84  and  _87
REMARK   41  A    between atoms: _87  and  _88
REMARK   42  A    between atoms: _91  and  _93
REMARK   43  A    between atoms: _93  and  _94
REMARK   44  A    between atoms: _97  and  _99
REMARK   45  A    between atoms: _99  and  _100
REMARK   46  A    between atoms: _99  and  _102
REMARK   47  A    between atoms: _102  and  _103
REMARK   48  A    between atoms: _106  and  _108
REMARK   49  A    between atoms: _108  and  _109
REMARK   50  A    between atoms: _108  and  _111
REMARK   51  A    between atoms: _111  and  _112
REMARK   52  A    between atoms: _115  and  _117
REMARK   53  A    between atoms: _117  and  _118
REMARK   54  A    between atoms: _117  and  _120
REMARK   55  A    between atoms: _120  and  _121
REMARK   56  A    between atoms: _121  and  _122
REMARK   57  A    between atoms: _122  and  _123
REMARK   58  A    between atoms: _123  and  _124
REMARK   59  A    between atoms: _128  and  _130
REMARK   60  A    between atoms: _130  and  _131
REMARK   61  A    between atoms: _130  and  _133
REMARK   62  A    between atoms: _133  and  _134
REMARK   63  A    between atoms: _137  and  _139
REMARK   64  A    between atoms: _139  and  _140
REMARK   65  A    between atoms: _139  and  _142
REMARK   66  A    between atoms: _142  and  _143
REMARK   67  A    between atoms: _143  and  _144
REMARK   68  A    between atoms: _147  and  _149
REMARK   69  A    between atoms: _149  and  _150
REMARK   70  A    between atoms: _149  and  _152
REMARK   71  A    between atoms: _152  and  _153
REMARK   72  A    between atoms: _156  and  _158
REMARK   73  A    between atoms: _158  and  _159
REMARK   74  A    between atoms: _158  and  _161
REMARK   75  A    between atoms: _164  and  _166
REMARK   76  A    between atoms: _166  and  _167
REMARK   77  A    between atoms: _166  and  _169
REMARK   78  A    between atoms: _169  and  _170
REMARK   79  A    between atoms: _173  and  _175
REMARK   80  A    between atoms: _175  and  _176
REMARK   81  A    between atoms: _175  and  _178
REMARK   82  A    between atoms: _178  and  _179
REMARK   83  A    between atoms: _182  and  _184
REMARK   84  A    between atoms: _184  and  _185
REMARK   85  A    between atoms: _187  and  _189
REMARK   86  A    between atoms: _189  and  _190
REMARK   87  A    between atoms: _189  and  _192
REMARK   88  A    between atoms: _192  and  _193
REMARK   89  A    between atoms: _196  and  _198
REMARK   90  A    between atoms: _198  and  _199
REMARK   91  A    between atoms: _201  and  _203
REMARK   92  A    between atoms: _203  and  _204
REMARK   93  A    between atoms: _203  and  _206
REMARK   94  A    between atoms: _206  and  _207
REMARK   95  A    between atoms: _207  and  _208
REMARK   96  A    between atoms: _210  and  _212
REMARK   97  A    between atoms: _212  and  _213
REMARK   98  A    between atoms: _212  and  _215
REMARK   99  A    between atoms: _215  and  _216
REMARK  100  A    between atoms: _219  and  _221
REMARK  101  A    between atoms: _221  and  _222
REMARK  102  A    between atoms: _221  and  _224
REMARK  103  A    between atoms: _224  and  _225
REMARK  104  A    between atoms: _228  and  _230
REMARK  105  A    between atoms: _230  and  _231
REMARK  106  A    between atoms: _230  and  _233
REMARK  107  A    between atoms: _233  and  _234
REMARK  108  A    between atoms: _237  and  _239
REMARK  109  A    between atoms: _239  and  _240
REMARK  110  A    between atoms: _239  and  _242
REMARK  111  A    between atoms: _242  and  _243
REMARK  112  A    between atoms: _248  and  _250
REMARK  113  A    between atoms: _250  and  _251
REMARK  114  A    between atoms: _250  and  _253
REMARK  115  A    between atoms: _253  and  _254
REMARK  116  A    between atoms: _259  and  _261
REMARK  117  A    between atoms: _261  and  _262
REMARK  118  A    between atoms: _261  and  _264
REMARK  119  A    between atoms: _264  and  _265
REMARK  120  A    between atoms: _268  and  _270
REMARK  121  A    between atoms: _270  and  _271
REMARK  122  A    between atoms: _273  and  _275
REMARK  123  A    between atoms: _275  and  _276
REMARK  124  A    between atoms: _275  and  _278
REMARK  125  A    between atoms: _278  and  _279
REMARK  126  A    between atoms: _282  and  _284
REMARK  127  A    between atoms: _284  and  _285
REMARK  128  A    between atoms: _284  and  _287
REMARK  129  A    between atoms: _287  and  _288
REMARK  130  A    between atoms: _291  and  _293
REMARK  131  A    between atoms: _293  and  _294
REMARK  132  A    between atoms: _297  and  _299
REMARK  133  A    between atoms: _299  and  _300
REMARK  134  A    between atoms: _299  and  _302
REMARK  135  A    between atoms: _302  and  _303
REMARK  136  A    between atoms: _303  and  _304
REMARK  137  A    between atoms: _304  and  _305
REMARK  138  A    between atoms: _305  and  _306
REMARK  139  A    between atoms: _310  and  _312
REMARK  140  A    between atoms: _312  and  _313
REMARK  141  A    between atoms: _312  and  _315
REMARK  142  A    between atoms: _315  and  _316
REMARK  143  A    between atoms: _318  and  _320
REMARK  144  A    between atoms: _320  and  _321
REMARK  145  A    between atoms: _323  and  _325
REMARK  146  A    between atoms: _325  and  _326
REMARK  147  A    between atoms: _325  and  _328
REMARK  148  A    between atoms: _328  and  _329
REMARK  149  A    between atoms: _332  and  _334
REMARK  150  A    between atoms: _334  and  _335
REMARK  151  A    between atoms: _334  and  _337
REMARK  152  A    between atoms: _337  and  _338
REMARK  153  A    between atoms: _344  and  _346
REMARK  154  A    between atoms: _346  and  _347
REMARK  155  A    between atoms: _349  and  _351
REMARK  156  A    between atoms: _351  and  _352
REMARK  157  A    between atoms: _351  and  _354
REMARK  158  A    between atoms: _357  and  _359
REMARK  159  A    between atoms: _359  and  _360
REMARK  160  A    between atoms: _362  and  _364
REMARK  161  A    between atoms: _364  and  _365
REMARK  162  A    between atoms: _364  and  _367
REMARK  163  A    between atoms: _367  and  _368
REMARK  164  A    between atoms: _374  and  _376
REMARK  165  A    between atoms: _376  and  _377
REMARK  166  A    between atoms: _376  and  _379
REMARK  167  A    between atoms: _379  and  _380
REMARK  168  A    between atoms: _385  and  _386
REMARK  169  A    between atoms: _388  and  _390
REMARK  170  A    between atoms: _390  and  _391
REMARK  171  A    between atoms: _390  and  _393
REMARK  172  A    between atoms: _393  and  _394
REMARK  173  A    between atoms: _396  and  _398
REMARK  174  A    between atoms: _398  and  _399
REMARK  175  A    between atoms: _398  and  _401
REMARK  176  A    between atoms: _404  and  _406
REMARK  177  A    between atoms: _406  and  _407
REMARK  178  A    between atoms: _406  and  _409
REMARK  179  A    between atoms: _409  and  _410
REMARK  180  A    between atoms: _413  and  _415
REMARK  181  A    between atoms: _415  and  _416
REMARK  182  A    between atoms: _415  and  _418
REMARK  183  A    between atoms: _421  and  _423
REMARK  184  A    between atoms: _423  and  _424
REMARK  185  A    between atoms: _423  and  _426
REMARK  186  A    between atoms: _426  and  _427
REMARK  187  A    between atoms: _430  and  _432
REMARK  188  A    between atoms: _432  and  _433
REMARK  189  A    between atoms: _432  and  _435
REMARK  190  A    between atoms: _435  and  _436
REMARK  191  A    between atoms: _439  and  _441
REMARK  192  A    between atoms: _441  and  _442
REMARK  193  A    between atoms: _441  and  _444
REMARK  194  A    between atoms: _444  and  _445
REMARK  195  A    between atoms: _445  and  _446
REMARK  196  A    between atoms: _446  and  _447
REMARK  197  A    between atoms: _447  and  _448
REMARK  198  A    between atoms: _452  and  _454
REMARK  199  A    between atoms: _454  and  _455
REMARK  200  A    between atoms: _454  and  _457
REMARK  201  A    between atoms: _457  and  _458
REMARK  202  A    between atoms: _463  and  _465
REMARK  203  A    between atoms: _465  and  _466
REMARK  204  A    between atoms: _465  and  _468
REMARK  205  A    between atoms: _468  and  _469
REMARK  206  A    between atoms: _479  and  _481
REMARK  207  A    between atoms: _481  and  _482
REMARK  208  A    between atoms: _484  and  _486
REMARK  209  A    between atoms: _486  and  _487
REMARK  210  A    between atoms: _486  and  _489
REMARK  211  A    between atoms: _489  and  _490
REMARK  212  A    between atoms: _493  and  _495
REMARK  213  A    between atoms: _495  and  _496
REMARK  214  A    between atoms: _495  and  _498
REMARK  215  A    between atoms: _498  and  _499
REMARK  216  A    between atoms: _499  and  _500
REMARK  217  A    between atoms: _500  and  _501
REMARK  218  A    between atoms: _501  and  _502
REMARK  219  A    between atoms: _506  and  _508
REMARK  220  A    between atoms: _508  and  _509
REMARK  221  A    between atoms: _508  and  _511
REMARK                            x       y       z     vdW  Elec       q    Type
REMARK                         _______ _______ _______ _____ _____    ______ ____
ROOT
ATOM      1  O   HOH     1     -35.981  19.739 -23.591  0.00  0.00    +0.000 OA
ENDROOT
TORSDOF 0
REMARK  Name = ../refined-set-2016/3wha/3wha_pocket.pdb
REMARK  221 active torsions:
REMARK  status: ('A' for Active; 'I' for Inactive)
REMARK    1  A    between atoms: _1  and  _3
REMARK    2  A    between atoms: _3  and  _4
REMARK    3  A    between atoms: _3  and  _6
REMARK    4  A    between atoms: _6  and  _7
REMARK    5  A    between atoms: _10  and  _12
REMARK    6  A    between atoms: _12  and  _13
REMARK    7  A    between atoms: _12  and  _15
REMARK    8  A    between atoms: _15  and  _16
REMARK    9  A    between atoms: _19  and  _21
REMARK   10  A    between atoms: _21  and  _22
REMARK   11  A    between atoms: _21  and  _24
REMARK   12  A    between atoms: _24  and  _25
REMARK   13  A    between atoms: _25  and  _26
REMARK   14  A    between atoms: _29  and  _31
REMARK   15  A    between atoms: _31  and  _32
REMARK   16  A    between atoms: _31  and  _34
REMARK   17  A    between atoms: _34  and  _35
REMARK   18  A    between atoms: _38  and  _40
REMARK   19  A    between atoms: _40  and  _41
REMARK   20  A    between atoms: _40  and  _43
REMARK   21  A    between atoms: _43  and  _44
REMARK   22  A    between atoms: _47  and  _49
REMARK   23  A    between atoms: _49  and  _50
REMARK   24  A    between atoms: _49  and  _52
REMARK   25  A    between atoms: _52  and  _53
REMARK   26  A    between atoms: _55  and  _57
REMARK   27  A    between atoms: _57  and  _58
REMARK   28  A    between atoms: _57  and  _60
REMARK   29  A    between atoms: _60  and  _61
REMARK   30  A    between atoms: _66  and  _68
REMARK   31  A    between atoms: _68  and  _69
REMARK   32  A    between atoms: _68  and  _71
REMARK   33  A    between atoms: _71  and  _72
REMARK   34  A    between atoms: _74  and  _76
REMARK   35  A    between atoms: _76  and  _77
REMARK   36  A    between atoms: _76  and  _79
REMARK   37  A    between atoms: _79  and  _80
REMARK   38  A    between atoms: _82  and  _84
REMARK   39  A    between atoms: _84  and  _85
REMARK   40  A    between atoms: _84  and  _87
REMARK   41  A    between atoms: _87  and  _88
REMARK   42  A    between atoms: _91  and  _93
REMARK   43  A    between atoms: _93  and  _94
REMARK   44  A    between atoms: _97  and  _99
REMARK   45  A    between atoms: _99  and  _100
REMARK   46  A    between atoms: _99  and  _102
REMARK   47  A    between atoms: _102  and  _103
REMARK   48  A    between atoms: _106  and  _108
REMARK   49  A    between atoms: _108  and  _109
REMARK   50  A    between atoms: _108  and  _111
REMARK   51  A    between atoms: _111  and  _112
REMARK   52  A    between atoms: _115  and  _117
REMARK   53  A    between atoms: _117  and  _118
REMARK   54  A    between atoms: _117  and  _120
REMARK   55  A    between atoms: _120  and  _121
REMARK   56  A    between atoms: _121  and  _122
REMARK   57  A    between atoms: _122  and  _123
REMARK   58  A    between atoms: _123  and  _124
REMARK   59  A    between atoms: _128  and  _130
REMARK   60  A    between atoms: _130  and  _131
REMARK   61  A    between atoms: _130  and  _133
REMARK   62  A    between atoms: _133  and  _134
REMARK   63  A    between atoms: _137  and  _139
REMARK   64  A    between atoms: _139  and  _140
REMARK   65  A    between atoms: _139  and  _142
REMARK   66  A    between atoms: _142  and  _143
REMARK   67  A    between atoms: _143  and  _144
REMARK   68  A    between atoms: _147  and  _149
REMARK   69  A    between atoms: _149  and  _150
REMARK   70  A    between atoms: _149  and  _152
REMARK   71  A    between atoms: _152  and  _153
REMARK   72  A    between atoms: _156  and  _158
REMARK   73  A    between atoms: _158  and  _159
REMARK   74  A    between atoms: _158  and  _161
REMARK   75  A    between atoms: _164  and  _166
REMARK   76  A    between atoms: _166  and  _167
REMARK   77  A    between atoms: _166  and  _169
REMARK   78  A    between atoms: _169  and  _170
REMARK   79  A    between atoms: _173  and  _175
REMARK   80  A    between atoms: _175  and  _176
REMARK   81  A    between atoms: _175  and  _178
REMARK   82  A    between atoms: _178  and  _179
REMARK   83  A    between atoms: _182  and  _184
REMARK   84  A    between atoms: _184  and  _185
REMARK   85  A    between atoms: _187  and  _189
REMARK   86  A    between atoms: _189  and  _190
REMARK   87  A    between atoms: _189  and  _192
REMARK   88  A    between atoms: _192  and  _193
REMARK   89  A    between atoms: _196  and  _198
REMARK   90  A    between atoms: _198  and  _199
REMARK   91  A    between atoms: _201  and  _203
REMARK   92  A    between atoms: _203  and  _204
REMARK   93  A    between atoms: _203  and  _206
REMARK   94  A    between atoms: _206  and  _207
REMARK   95  A    between atoms: _207  and  _208
REMARK   96  A    between atoms: _210  and  _212
REMARK   97  A    between atoms: _212  and  _213
REMARK   98  A    between atoms: _212  and  _215
REMARK   99  A    between atoms: _215  and  _216
REMARK  100  A    between atoms: _219  and  _221
REMARK  101  A    between atoms: _221  and  _222
REMARK  102  A    between atoms: _221  and  _224
REMARK  103  A    between atoms: _224  and  _225
REMARK  104  A    between atoms: _228  and  _230
REMARK  105  A    between atoms: _230  and  _231
REMARK  106  A    between atoms: _230  and  _233
REMARK  107  A    between atoms: _233  and  _234
REMARK  108  A    between atoms: _237  and  _239
REMARK  109  A    between atoms: _239  and  _240
REMARK  110  A    between atoms: _239  and  _242
REMARK  111  A    between atoms: _242  and  _243
REMARK  112  A    between atoms: _248  and  _250
REMARK  113  A    between atoms: _250  and  _251
REMARK  114  A    between atoms: _250  and  _253
REMARK  115  A    between atoms: _253  and  _254
REMARK  116  A    between atoms: _259  and  _261
REMARK  117  A    between atoms: _261  and  _262
REMARK  118  A    between atoms: _261  and  _264
REMARK  119  A    between atoms: _264  and  _265
REMARK  120  A    between atoms: _268  and  _270
REMARK  121  A    between atoms: _270  and  _271
REMARK  122  A    between atoms: _273  and  _275
REMARK  123  A    between atoms: _275  and  _276
REMARK  124  A    between atoms: _275  and  _278
REMARK  125  A    between atoms: _278  and  _279
REMARK  126  A    between atoms: _282  and  _284
REMARK  127  A    between atoms: _284  and  _285
REMARK  128  A    between atoms: _284  and  _287
REMARK  129  A    between atoms: _287  and  _288
REMARK  130  A    between atoms: _291  and  _293
REMARK  131  A    between atoms: _293  and  _294
REMARK  132  A    between atoms: _297  and  _299
REMARK  133  A    between atoms: _299  and  _300
REMARK  134  A    between atoms: _299  and  _302
REMARK  135  A    between atoms: _302  and  _303
REMARK  136  A    between atoms: _303  and  _304
REMARK  137  A    between atoms: _304  and  _305
REMARK  138  A    between atoms: _305  and  _306
REMARK  139  A    between atoms: _310  and  _312
REMARK  140  A    between atoms: _312  and  _313
REMARK  141  A    between atoms: _312  and  _315
REMARK  142  A    between atoms: _315  and  _316
REMARK  143  A    between atoms: _318  and  _320
REMARK  144  A    between atoms: _320  and  _321
REMARK  145  A    between atoms: _323  and  _325
REMARK  146  A    between atoms: _325  and  _326
REMARK  147  A    between atoms: _325  and  _328
REMARK  148  A    between atoms: _328  and  _329
REMARK  149  A    between atoms: _332  and  _334
REMARK  150  A    between atoms: _334  and  _335
REMARK  151  A    between atoms: _334  and  _337
REMARK  152  A    between atoms: _337  and  _338
REMARK  153  A    between atoms: _344  and  _346
REMARK  154  A    between atoms: _346  and  _347
REMARK  155  A    between atoms: _349  and  _351
REMARK  156  A    between atoms: _351  and  _352
REMARK  157  A    between atoms: _351  and  _354
REMARK  158  A    between atoms: _357  and  _359
REMARK  159  A    between atoms: _359  and  _360
REMARK  160  A    between atoms: _362  and  _364
REMARK  161  A    between atoms: _364  and  _365
REMARK  162  A    between atoms: _364  and  _367
REMARK  163  A    between atoms: _367  and  _368
REMARK  164  A    between atoms: _374  and  _376
REMARK  165  A    between atoms: _376  and  _377
REMARK  166  A    between atoms: _376  and  _379
REMARK  167  A    between atoms: _379  and  _380
REMARK  168  A    between atoms: _385  and  _386
REMARK  169  A    between atoms: _388  and  _390
REMARK  170  A    between atoms: _390  and  _391
REMARK  171  A    between atoms: _390  and  _393
REMARK  172  A    between atoms: _393  and  _394
REMARK  173  A    between atoms: _396  and  _398
REMARK  174  A    between atoms: _398  and  _399
REMARK  175  A    between atoms: _398  and  _401
REMARK  176  A    between atoms: _404  and  _406
REMARK  177  A    between atoms: _406  and  _407
REMARK  178  A    between atoms: _406  and  _409
REMARK  179  A    between atoms: _409  and  _410
REMARK  180  A    between atoms: _413  and  _415
REMARK  181  A    between atoms: _415  and  _416
REMARK  182  A    between atoms: _415  and  _418
REMARK  183  A    between atoms: _421  and  _423
REMARK  184  A    between atoms: _423  and  _424
REMARK  185  A    between atoms: _423  and  _426
REMARK  186  A    between atoms: _426  and  _427
REMARK  187  A    between atoms: _430  and  _432
REMARK  188  A    between atoms: _432  and  _433
REMARK  189  A    between atoms: _432  and  _435
REMARK  190  A    between atoms: _435  and  _436
REMARK  191  A    between atoms: _439  and  _441
REMARK  192  A    between atoms: _441  and  _442
REMARK  193  A    between atoms: _441  and  _444
REMARK  194  A    between atoms: _444  and  _445
REMARK  195  A    between atoms: _445  and  _446
REMARK  196  A    between atoms: _446  and  _447
REMARK  197  A    between atoms: _447  and  _448
REMARK  198  A    between atoms: _452  and  _454
REMARK  199  A    between atoms: _454  and  _455
REMARK  200  A    between atoms: _454  and  _457
REMARK  201  A    between atoms: _457  and  _458
REMARK  202  A    between atoms: _463  and  _465
REMARK  203  A    between atoms: _465  and  _466
REMARK  204  A    between atoms: _465  and  _468
REMARK  205  A    between atoms: _468  and  _469
REMARK  206  A    between atoms: _479  and  _481
REMARK  207  A    between atoms: _481  and  _482
REMARK  208  A    between atoms: _484  and  _486
REMARK  209  A    between atoms: _486  and  _487
REMARK  210  A    between atoms: _486  and  _489
REMARK  211  A    between atoms: _489  and  _490
REMARK  212  A    between atoms: _493  and  _495
REMARK  213  A    between atoms: _495  and  _496
REMARK  214  A    between atoms: _495  and  _498
REMARK  215  A    between atoms: _498  and  _499
REMARK  216  A    between atoms: _499  and  _500
REMARK  217  A    between atoms: _500  and  _501
REMARK  218  A    between atoms: _501  and  _502
REMARK  219  A    between atoms: _506  and  _508
REMARK  220  A    between atoms: _508  and  _509
REMARK  221  A    between atoms: _508  and  _511
REMARK                            x       y       z     vdW  Elec       q    Type
REMARK                         _______ _______ _______ _____ _____    ______ ____
ROOT
ATOM      1  O   HOH     1     -31.457  15.280 -28.141  0.00  0.00    +0.000 OA
ENDROOT
TORSDOF 0
REMARK  Name = ../refined-set-2016/3wha/3wha_pocket.pdb
REMARK  221 active torsions:
REMARK  status: ('A' for Active; 'I' for Inactive)
REMARK    1  A    between atoms: _1  and  _3
REMARK    2  A    between atoms: _3  and  _4
REMARK    3  A    between atoms: _3  and  _6
REMARK    4  A    between atoms: _6  and  _7
REMARK    5  A    between atoms: _10  and  _12
REMARK    6  A    between atoms: _12  and  _13
REMARK    7  A    between atoms: _12  and  _15
REMARK    8  A    between atoms: _15  and  _16
REMARK    9  A    between atoms: _19  and  _21
REMARK   10  A    between atoms: _21  and  _22
REMARK   11  A    between atoms: _21  and  _24
REMARK   12  A    between atoms: _24  and  _25
REMARK   13  A    between atoms: _25  and  _26
REMARK   14  A    between atoms: _29  and  _31
REMARK   15  A    between atoms: _31  and  _32
REMARK   16  A    between atoms: _31  and  _34
REMARK   17  A    between atoms: _34  and  _35
REMARK   18  A    between atoms: _38  and  _40
REMARK   19  A    between atoms: _40  and  _41
REMARK   20  A    between atoms: _40  and  _43
REMARK   21  A    between atoms: _43  and  _44
REMARK   22  A    between atoms: _47  and  _49
REMARK   23  A    between atoms: _49  and  _50
REMARK   24  A    between atoms: _49  and  _52
REMARK   25  A    between atoms: _52  and  _53
REMARK   26  A    between atoms: _55  and  _57
REMARK   27  A    between atoms: _57  and  _58
REMARK   28  A    between atoms: _57  and  _60
REMARK   29  A    between atoms: _60  and  _61
REMARK   30  A    between atoms: _66  and  _68
REMARK   31  A    between atoms: _68  and  _69
REMARK   32  A    between atoms: _68  and  _71
REMARK   33  A    between atoms: _71  and  _72
REMARK   34  A    between atoms: _74  and  _76
REMARK   35  A    between atoms: _76  and  _77
REMARK   36  A    between atoms: _76  and  _79
REMARK   37  A    between atoms: _79  and  _80
REMARK   38  A    between atoms: _82  and  _84
REMARK   39  A    between atoms: _84  and  _85
REMARK   40  A    between atoms: _84  and  _87
REMARK   41  A    between atoms: _87  and  _88
REMARK   42  A    between atoms: _91  and  _93
REMARK   43  A    between atoms: _93  and  _94
REMARK   44  A    between atoms: _97  and  _99
REMARK   45  A    between atoms: _99  and  _100
REMARK   46  A    between atoms: _99  and  _102
REMARK   47  A    between atoms: _102  and  _103
REMARK   48  A    between atoms: _106  and  _108
REMARK   49  A    between atoms: _108  and  _109
REMARK   50  A    between atoms: _108  and  _111
REMARK   51  A    between atoms: _111  and  _112
REMARK   52  A    between atoms: _115  and  _117
REMARK   53  A    between atoms: _117  and  _118
REMARK   54  A    between atoms: _117  and  _120
REMARK   55  A    between atoms: _120  and  _121
REMARK   56  A    between atoms: _121  and  _122
REMARK   57  A    between atoms: _122  and  _123
REMARK   58  A    between atoms: _123  and  _124
REMARK   59  A    between atoms: _128  and  _130
REMARK   60  A    between atoms: _130  and  _131
REMARK   61  A    between atoms: _130  and  _133
REMARK   62  A    between atoms: _133  and  _134
REMARK   63  A    between atoms: _137  and  _139
REMARK   64  A    between atoms: _139  and  _140
REMARK   65  A    between atoms: _139  and  _142
REMARK   66  A    between atoms: _142  and  _143
REMARK   67  A    between atoms: _143  and  _144
REMARK   68  A    between atoms: _147  and  _149
REMARK   69  A    between atoms: _149  and  _150
REMARK   70  A    between atoms: _149  and  _152
REMARK   71  A    between atoms: _152  and  _153
REMARK   72  A    between atoms: _156  and  _158
REMARK   73  A    between atoms: _158  and  _159
REMARK   74  A    between atoms: _158  and  _161
REMARK   75  A    between atoms: _164  and  _166
REMARK   76  A    between atoms: _166  and  _167
REMARK   77  A    between atoms: _166  and  _169
REMARK   78  A    between atoms: _169  and  _170
REMARK   79  A    between atoms: _173  and  _175
REMARK   80  A    between atoms: _175  and  _176
REMARK   81  A    between atoms: _175  and  _178
REMARK   82  A    between atoms: _178  and  _179
REMARK   83  A    between atoms: _182  and  _184
REMARK   84  A    between atoms: _184  and  _185
REMARK   85  A    between atoms: _187  and  _189
REMARK   86  A    between atoms: _189  and  _190
REMARK   87  A    between atoms: _189  and  _192
REMARK   88  A    between atoms: _192  and  _193
REMARK   89  A    between atoms: _196  and  _198
REMARK   90  A    between atoms: _198  and  _199
REMARK   91  A    between atoms: _201  and  _203
REMARK   92  A    between atoms: _203  and  _204
REMARK   93  A    between atoms: _203  and  _206
REMARK   94  A    between atoms: _206  and  _207
REMARK   95  A    between atoms: _207  and  _208
REMARK   96  A    between atoms: _210  and  _212
REMARK   97  A    between atoms: _212  and  _213
REMARK   98  A    between atoms: _212  and  _215
REMARK   99  A    between atoms: _215  and  _216
REMARK  100  A    between atoms: _219  and  _221
REMARK  101  A    between atoms: _221  and  _222
REMARK  102  A    between atoms: _221  and  _224
REMARK  103  A    between atoms: _224  and  _225
REMARK  104  A    between atoms: _228  and  _230
REMARK  105  A    between atoms: _230  and  _231
REMARK  106  A    between atoms: _230  and  _233
REMARK  107  A    between atoms: _233  and  _234
REMARK  108  A    between atoms: _237  and  _239
REMARK  109  A    between atoms: _239  and  _240
REMARK  110  A    between atoms: _239  and  _242
REMARK  111  A    between atoms: _242  and  _243
REMARK  112  A    between atoms: _248  and  _250
REMARK  113  A    between atoms: _250  and  _251
REMARK  114  A    between atoms: _250  and  _253
REMARK  115  A    between atoms: _253  and  _254
REMARK  116  A    between atoms: _259  and  _261
REMARK  117  A    between atoms: _261  and  _262
REMARK  118  A    between atoms: _261  and  _264
REMARK  119  A    between atoms: _264  and  _265
REMARK  120  A    between atoms: _268  and  _270
REMARK  121  A    between atoms: _270  and  _271
REMARK  122  A    between atoms: _273  and  _275
REMARK  123  A    between atoms: _275  and  _276
REMARK  124  A    between atoms: _275  and  _278
REMARK  125  A    between atoms: _278  and  _279
REMARK  126  A    between atoms: _282  and  _284
REMARK  127  A    between atoms: _284  and  _285
REMARK  128  A    between atoms: _284  and  _287
REMARK  129  A    between atoms: _287  and  _288
REMARK  130  A    between atoms: _291  and  _293
REMARK  131  A    between atoms: _293  and  _294
REMARK  132  A    between atoms: _297  and  _299
REMARK  133  A    between atoms: _299  and  _300
REMARK  134  A    between atoms: _299  and  _302
REMARK  135  A    between atoms: _302  and  _303
REMARK  136  A    between atoms: _303  and  _304
REMARK  137  A    between atoms: _304  and  _305
REMARK  138  A    between atoms: _305  and  _306
REMARK  139  A    between atoms: _310  and  _312
REMARK  140  A    between atoms: _312  and  _313
REMARK  141  A    between atoms: _312  and  _315
REMARK  142  A    between atoms: _315  and  _316
REMARK  143  A    between atoms: _318  and  _320
REMARK  144  A    between atoms: _320  and  _321
REMARK  145  A    between atoms: _323  and  _325
REMARK  146  A    between atoms: _325  and  _326
REMARK  147  A    between atoms: _325  and  _328
REMARK  148  A    between atoms: _328  and  _329
REMARK  149  A    between atoms: _332  and  _334
REMARK  150  A    between atoms: _334  and  _335
REMARK  151  A    between atoms: _334  and  _337
REMARK  152  A    between atoms: _337  and  _338
REMARK  153  A    between atoms: _344  and  _346
REMARK  154  A    between atoms: _346  and  _347
REMARK  155  A    between atoms: _349  and  _351
REMARK  156  A    between atoms: _351  and  _352
REMARK  157  A    between atoms: _351  and  _354
REMARK  158  A    between atoms: _357  and  _359
REMARK  159  A    between atoms: _359  and  _360
REMARK  160  A    between atoms: _362  and  _364
REMARK  161  A    between atoms: _364  and  _365
REMARK  162  A    between atoms: _364  and  _367
REMARK  163  A    between atoms: _367  and  _368
REMARK  164  A    between atoms: _374  and  _376
REMARK  165  A    between atoms: _376  and  _377
REMARK  166  A    between atoms: _376  and  _379
REMARK  167  A    between atoms: _379  and  _380
REMARK  168  A    between atoms: _385  and  _386
REMARK  169  A    between atoms: _388  and  _390
REMARK  170  A    between atoms: _390  and  _391
REMARK  171  A    between atoms: _390  and  _393
REMARK  172  A    between atoms: _393  and  _394
REMARK  173  A    between atoms: _396  and  _398
REMARK  174  A    between atoms: _398  and  _399
REMARK  175  A    between atoms: _398  and  _401
REMARK  176  A    between atoms: _404  and  _406
REMARK  177  A    between atoms: _406  and  _407
REMARK  178  A    between atoms: _406  and  _409
REMARK  179  A    between atoms: _409  and  _410
REMARK  180  A    between atoms: _413  and  _415
REMARK  181  A    between atoms: _415  and  _416
REMARK  182  A    between atoms: _415  and  _418
REMARK  183  A    between atoms: _421  and  _423
REMARK  184  A    between atoms: _423  and  _424
REMARK  185  A    between atoms: _423  and  _426
REMARK  186  A    between atoms: _426  and  _427
REMARK  187  A    between atoms: _430  and  _432
REMARK  188  A    between atoms: _432  and  _433
REMARK  189  A    between atoms: _432  and  _435
REMARK  190  A    between atoms: _435  and  _436
REMARK  191  A    between atoms: _439  and  _441
REMARK  192  A    between atoms: _441  and  _442
REMARK  193  A    between atoms: _441  and  _444
REMARK  194  A    between atoms: _444  and  _445
REMARK  195  A    between atoms: _445  and  _446
REMARK  196  A    between atoms: _446  and  _447
REMARK  197  A    between atoms: _447  and  _448
REMARK  198  A    between atoms: _452  and  _454
REMARK  199  A    between atoms: _454  and  _455
REMARK  200  A    between atoms: _454  and  _457
REMARK  201  A    between atoms: _457  and  _458
REMARK  202  A    between atoms: _463  and  _465
REMARK  203  A    between atoms: _465  and  _466
REMARK  204  A    between atoms: _465  and  _468
REMARK  205  A    between atoms: _468  and  _469
REMARK  206  A    between atoms: _479  and  _481
REMARK  207  A    between atoms: _481  and  _482
REMARK  208  A    between atoms: _484  and  _486
REMARK  209  A    between atoms: _486  and  _487
REMARK  210  A    between atoms: _486  and  _489
REMARK  211  A    between atoms: _489  and  _490
REMARK  212  A    between atoms: _493  and  _495
REMARK  213  A    between atoms: _495  and  _496
REMARK  214  A    between atoms: _495  and  _498
REMARK  215  A    between atoms: _498  and  _499
REMARK  216  A    between atoms: _499  and  _500
REMARK  217  A    between atoms: _500  and  _501
REMARK  218  A    between atoms: _501  and  _502
REMARK  219  A    between atoms: _506  and  _508
REMARK  220  A    between atoms: _508  and  _509
REMARK  221  A    between atoms: _508  and  _511
REMARK                            x       y       z     vdW  Elec       q    Type
REMARK                         _______ _______ _______ _____ _____    ______ ____
ROOT
ATOM      1  O   HOH     1     -35.093  17.755 -25.122  0.00  0.00    +0.000 OA
ENDROOT
TORSDOF 0
REMARK  Name = ../refined-set-2016/3wha/3wha_pocket.pdb
REMARK  221 active torsions:
REMARK  status: ('A' for Active; 'I' for Inactive)
REMARK    1  A    between atoms: _1  and  _3
REMARK    2  A    between atoms: _3  and  _4
REMARK    3  A    between atoms: _3  and  _6
REMARK    4  A    between atoms: _6  and  _7
REMARK    5  A    between atoms: _10  and  _12
REMARK    6  A    between atoms: _12  and  _13
REMARK    7  A    between atoms: _12  and  _15
REMARK    8  A    between atoms: _15  and  _16
REMARK    9  A    between atoms: _19  and  _21
REMARK   10  A    between atoms: _21  and  _22
REMARK   11  A    between atoms: _21  and  _24
REMARK   12  A    between atoms: _24  and  _25
REMARK   13  A    between atoms: _25  and  _26
REMARK   14  A    between atoms: _29  and  _31
REMARK   15  A    between atoms: _31  and  _32
REMARK   16  A    between atoms: _31  and  _34
REMARK   17  A    between atoms: _34  and  _35
REMARK   18  A    between atoms: _38  and  _40
REMARK   19  A    between atoms: _40  and  _41
REMARK   20  A    between atoms: _40  and  _43
REMARK   21  A    between atoms: _43  and  _44
REMARK   22  A    between atoms: _47  and  _49
REMARK   23  A    between atoms: _49  and  _50
REMARK   24  A    between atoms: _49  and  _52
REMARK   25  A    between atoms: _52  and  _53
REMARK   26  A    between atoms: _55  and  _57
REMARK   27  A    between atoms: _57  and  _58
REMARK   28  A    between atoms: _57  and  _60
REMARK   29  A    between atoms: _60  and  _61
REMARK   30  A    between atoms: _66  and  _68
REMARK   31  A    between atoms: _68  and  _69
REMARK   32  A    between atoms: _68  and  _71
REMARK   33  A    between atoms: _71  and  _72
REMARK   34  A    between atoms: _74  and  _76
REMARK   35  A    between atoms: _76  and  _77
REMARK   36  A    between atoms: _76  and  _79
REMARK   37  A    between atoms: _79  and  _80
REMARK   38  A    between atoms: _82  and  _84
REMARK   39  A    between atoms: _84  and  _85
REMARK   40  A    between atoms: _84  and  _87
REMARK   41  A    between atoms: _87  and  _88
REMARK   42  A    between atoms: _91  and  _93
REMARK   43  A    between atoms: _93  and  _94
REMARK   44  A    between atoms: _97  and  _99
REMARK   45  A    between atoms: _99  and  _100
REMARK   46  A    between atoms: _99  and  _102
REMARK   47  A    between atoms: _102  and  _103
REMARK   48  A    between atoms: _106  and  _108
REMARK   49  A    between atoms: _108  and  _109
REMARK   50  A    between atoms: _108  and  _111
REMARK   51  A    between atoms: _111  and  _112
REMARK   52  A    between atoms: _115  and  _117
REMARK   53  A    between atoms: _117  and  _118
REMARK   54  A    between atoms: _117  and  _120
REMARK   55  A    between atoms: _120  and  _121
REMARK   56  A    between atoms: _121  and  _122
REMARK   57  A    between atoms: _122  and  _123
REMARK   58  A    between atoms: _123  and  _124
REMARK   59  A    between atoms: _128  and  _130
REMARK   60  A    between atoms: _130  and  _131
REMARK   61  A    between atoms: _130  and  _133
REMARK   62  A    between atoms: _133  and  _134
REMARK   63  A    between atoms: _137  and  _139
REMARK   64  A    between atoms: _139  and  _140
REMARK   65  A    between atoms: _139  and  _142
REMARK   66  A    between atoms: _142  and  _143
REMARK   67  A    between atoms: _143  and  _144
REMARK   68  A    between atoms: _147  and  _149
REMARK   69  A    between atoms: _149  and  _150
REMARK   70  A    between atoms: _149  and  _152
REMARK   71  A    between atoms: _152  and  _153
REMARK   72  A    between atoms: _156  and  _158
REMARK   73  A    between atoms: _158  and  _159
REMARK   74  A    between atoms: _158  and  _161
REMARK   75  A    between atoms: _164  and  _166
REMARK   76  A    between atoms: _166  and  _167
REMARK   77  A    between atoms: _166  and  _169
REMARK   78  A    between atoms: _169  and  _170
REMARK   79  A    between atoms: _173  and  _175
REMARK   80  A    between atoms: _175  and  _176
REMARK   81  A    between atoms: _175  and  _178
REMARK   82  A    between atoms: _178  and  _179
REMARK   83  A    between atoms: _182  and  _184
REMARK   84  A    between atoms: _184  and  _185
REMARK   85  A    between atoms: _187  and  _189
REMARK   86  A    between atoms: _189  and  _190
REMARK   87  A    between atoms: _189  and  _192
REMARK   88  A    between atoms: _192  and  _193
REMARK   89  A    between atoms: _196  and  _198
REMARK   90  A    between atoms: _198  and  _199
REMARK   91  A    between atoms: _201  and  _203
REMARK   92  A    between atoms: _203  and  _204
REMARK   93  A    between atoms: _203  and  _206
REMARK   94  A    between atoms: _206  and  _207
REMARK   95  A    between atoms: _207  and  _208
REMARK   96  A    between atoms: _210  and  _212
REMARK   97  A    between atoms: _212  and  _213
REMARK   98  A    between atoms: _212  and  _215
REMARK   99  A    between atoms: _215  and  _216
REMARK  100  A    between atoms: _219  and  _221
REMARK  101  A    between atoms: _221  and  _222
REMARK  102  A    between atoms: _221  and  _224
REMARK  103  A    between atoms: _224  and  _225
REMARK  104  A    between atoms: _228  and  _230
REMARK  105  A    between atoms: _230  and  _231
REMARK  106  A    between atoms: _230  and  _233
REMARK  107  A    between atoms: _233  and  _234
REMARK  108  A    between atoms: _237  and  _239
REMARK  109  A    between atoms: _239  and  _240
REMARK  110  A    between atoms: _239  and  _242
REMARK  111  A    between atoms: _242  and  _243
REMARK  112  A    between atoms: _248  and  _250
REMARK  113  A    between atoms: _250  and  _251
REMARK  114  A    between atoms: _250  and  _253
REMARK  115  A    between atoms: _253  and  _254
REMARK  116  A    between atoms: _259  and  _261
REMARK  117  A    between atoms: _261  and  _262
REMARK  118  A    between atoms: _261  and  _264
REMARK  119  A    between atoms: _264  and  _265
REMARK  120  A    between atoms: _268  and  _270
REMARK  121  A    between atoms: _270  and  _271
REMARK  122  A    between atoms: _273  and  _275
REMARK  123  A    between atoms: _275  and  _276
REMARK  124  A    between atoms: _275  and  _278
REMARK  125  A    between atoms: _278  and  _279
REMARK  126  A    between atoms: _282  and  _284
REMARK  127  A    between atoms: _284  and  _285
REMARK  128  A    between atoms: _284  and  _287
REMARK  129  A    between atoms: _287  and  _288
REMARK  130  A    between atoms: _291  and  _293
REMARK  131  A    between atoms: _293  and  _294
REMARK  132  A    between atoms: _297  and  _299
REMARK  133  A    between atoms: _299  and  _300
REMARK  134  A    between atoms: _299  and  _302
REMARK  135  A    between atoms: _302  and  _303
REMARK  136  A    between atoms: _303  and  _304
REMARK  137  A    between atoms: _304  and  _305
REMARK  138  A    between atoms: _305  and  _306
REMARK  139  A    between atoms: _310  and  _312
REMARK  140  A    between atoms: _312  and  _313
REMARK  141  A    between atoms: _312  and  _315
REMARK  142  A    between atoms: _315  and  _316
REMARK  143  A    between atoms: _318  and  _320
REMARK  144  A    between atoms: _320  and  _321
REMARK  145  A    between atoms: _323  and  _325
REMARK  146  A    between atoms: _325  and  _326
REMARK  147  A    between atoms: _325  and  _328
REMARK  148  A    between atoms: _328  and  _329
REMARK  149  A    between atoms: _332  and  _334
REMARK  150  A    between atoms: _334  and  _335
REMARK  151  A    between atoms: _334  and  _337
REMARK  152  A    between atoms: _337  and  _338
REMARK  153  A    between atoms: _344  and  _346
REMARK  154  A    between atoms: _346  and  _347
REMARK  155  A    between atoms: _349  and  _351
REMARK  156  A    between atoms: _351  and  _352
REMARK  157  A    between atoms: _351  and  _354
REMARK  158  A    between atoms: _357  and  _359
REMARK  159  A    between atoms: _359  and  _360
REMARK  160  A    between atoms: _362  and  _364
REMARK  161  A    between atoms: _364  and  _365
REMARK  162  A    between atoms: _364  and  _367
REMARK  163  A    between atoms: _367  and  _368
REMARK  164  A    between atoms: _374  and  _376
REMARK  165  A    between atoms: _376  and  _377
REMARK  166  A    between atoms: _376  and  _379
REMARK  167  A    between atoms: _379  and  _380
REMARK  168  A    between atoms: _385  and  _386
REMARK  169  A    between atoms: _388  and  _390
REMARK  170  A    between atoms: _390  and  _391
REMARK  171  A    between atoms: _390  and  _393
REMARK  172  A    between atoms: _393  and  _394
REMARK  173  A    between atoms: _396  and  _398
REMARK  174  A    between atoms: _398  and  _399
REMARK  175  A    between atoms: _398  and  _401
REMARK  176  A    between atoms: _404  and  _406
REMARK  177  A    between atoms: _406  and  _407
REMARK  178  A    between atoms: _406  and  _409
REMARK  179  A    between atoms: _409  and  _410
REMARK  180  A    between atoms: _413  and  _415
REMARK  181  A    between atoms: _415  and  _416
REMARK  182  A    between atoms: _415  and  _418
REMARK  183  A    between atoms: _421  and  _423
REMARK  184  A    between atoms: _423  and  _424
REMARK  185  A    between atoms: _423  and  _426
REMARK  186  A    between atoms: _426  and  _427
REMARK  187  A    between atoms: _430  and  _432
REMARK  188  A    between atoms: _432  and  _433
REMARK  189  A    between atoms: _432  and  _435
REMARK  190  A    between atoms: _435  and  _436
REMARK  191  A    between atoms: _439  and  _441
REMARK  192  A    between atoms: _441  and  _442
REMARK  193  A    between atoms: _441  and  _444
REMARK  194  A    between atoms: _444  and  _445
REMARK  195  A    between atoms: _445  and  _446
REMARK  196  A    between atoms: _446  and  _447
REMARK  197  A    between atoms: _447  and  _448
REMARK  198  A    between atoms: _452  and  _454
REMARK  199  A    between atoms: _454  and  _455
REMARK  200  A    between atoms: _454  and  _457
REMARK  201  A    between atoms: _457  and  _458
REMARK  202  A    between atoms: _463  and  _465
REMARK  203  A    between atoms: _465  and  _466
REMARK  204  A    between atoms: _465  and  _468
REMARK  205  A    between atoms: _468  and  _469
REMARK  206  A    between atoms: _479  and  _481
REMARK  207  A    between atoms: _481  and  _482
REMARK  208  A    between atoms: _484  and  _486
REMARK  209  A    between atoms: _486  and  _487
REMARK  210  A    between atoms: _486  and  _489
REMARK  211  A    between atoms: _489  and  _490
REMARK  212  A    between atoms: _493  and  _495
REMARK  213  A    between atoms: _495  and  _496
REMARK  214  A    between atoms: _495  and  _498
REMARK  215  A    between atoms: _498  and  _499
REMARK  216  A    between atoms: _499  and  _500
REMARK  217  A    between atoms: _500  and  _501
REMARK  218  A    between atoms: _501  and  _502
REMARK  219  A    between atoms: _506  and  _508
REMARK  220  A    between atoms: _508  and  _509
REMARK  221  A    between atoms: _508  and  _511
REMARK                            x       y       z     vdW  Elec       q    Type
REMARK                         _______ _______ _______ _____ _____    ______ ____
ROOT
ATOM      1  O   HOH     1     -27.766  15.120 -25.370  0.00  0.00    +0.000 OA
ENDROOT
TORSDOF 0
REMARK  Name = ../refined-set-2016/3wha/3wha_pocket.pdb
REMARK  221 active torsions:
REMARK  status: ('A' for Active; 'I' for Inactive)
REMARK    1  A    between atoms: _1  and  _3
REMARK    2  A    between atoms: _3  and  _4
REMARK    3  A    between atoms: _3  and  _6
REMARK    4  A    between atoms: _6  and  _7
REMARK    5  A    between atoms: _10  and  _12
REMARK    6  A    between atoms: _12  and  _13
REMARK    7  A    between atoms: _12  and  _15
REMARK    8  A    between atoms: _15  and  _16
REMARK    9  A    between atoms: _19  and  _21
REMARK   10  A    between atoms: _21  and  _22
REMARK   11  A    between atoms: _21  and  _24
REMARK   12  A    between atoms: _24  and  _25
REMARK   13  A    between atoms: _25  and  _26
REMARK   14  A    between atoms: _29  and  _31
REMARK   15  A    between atoms: _31  and  _32
REMARK   16  A    between atoms: _31  and  _34
REMARK   17  A    between atoms: _34  and  _35
REMARK   18  A    between atoms: _38  and  _40
REMARK   19  A    between atoms: _40  and  _41
REMARK   20  A    between atoms: _40  and  _43
REMARK   21  A    between atoms: _43  and  _44
REMARK   22  A    between atoms: _47  and  _49
REMARK   23  A    between atoms: _49  and  _50
REMARK   24  A    between atoms: _49  and  _52
REMARK   25  A    between atoms: _52  and  _53
REMARK   26  A    between atoms: _55  and  _57
REMARK   27  A    between atoms: _57  and  _58
REMARK   28  A    between atoms: _57  and  _60
REMARK   29  A    between atoms: _60  and  _61
REMARK   30  A    between atoms: _66  and  _68
REMARK   31  A    between atoms: _68  and  _69
REMARK   32  A    between atoms: _68  and  _71
REMARK   33  A    between atoms: _71  and  _72
REMARK   34  A    between atoms: _74  and  _76
REMARK   35  A    between atoms: _76  and  _77
REMARK   36  A    between atoms: _76  and  _79
REMARK   37  A    between atoms: _79  and  _80
REMARK   38  A    between atoms: _82  and  _84
REMARK   39  A    between atoms: _84  and  _85
REMARK   40  A    between atoms: _84  and  _87
REMARK   41  A    between atoms: _87  and  _88
REMARK   42  A    between atoms: _91  and  _93
REMARK   43  A    between atoms: _93  and  _94
REMARK   44  A    between atoms: _97  and  _99
REMARK   45  A    between atoms: _99  and  _100
REMARK   46  A    between atoms: _99  and  _102
REMARK   47  A    between atoms: _102  and  _103
REMARK   48  A    between atoms: _106  and  _108
REMARK   49  A    between atoms: _108  and  _109
REMARK   50  A    between atoms: _108  and  _111
REMARK   51  A    between atoms: _111  and  _112
REMARK   52  A    between atoms: _115  and  _117
REMARK   53  A    between atoms: _117  and  _118
REMARK   54  A    between atoms: _117  and  _120
REMARK   55  A    between atoms: _120  and  _121
REMARK   56  A    between atoms: _121  and  _122
REMARK   57  A    between atoms: _122  and  _123
REMARK   58  A    between atoms: _123  and  _124
REMARK   59  A    between atoms: _128  and  _130
REMARK   60  A    between atoms: _130  and  _131
REMARK   61  A    between atoms: _130  and  _133
REMARK   62  A    between atoms: _133  and  _134
REMARK   63  A    between atoms: _137  and  _139
REMARK   64  A    between atoms: _139  and  _140
REMARK   65  A    between atoms: _139  and  _142
REMARK   66  A    between atoms: _142  and  _143
REMARK   67  A    between atoms: _143  and  _144
REMARK   68  A    between atoms: _147  and  _149
REMARK   69  A    between atoms: _149  and  _150
REMARK   70  A    between atoms: _149  and  _152
REMARK   71  A    between atoms: _152  and  _153
REMARK   72  A    between atoms: _156  and  _158
REMARK   73  A    between atoms: _158  and  _159
REMARK   74  A    between atoms: _158  and  _161
REMARK   75  A    between atoms: _164  and  _166
REMARK   76  A    between atoms: _166  and  _167
REMARK   77  A    between atoms: _166  and  _169
REMARK   78  A    between atoms: _169  and  _170
REMARK   79  A    between atoms: _173  and  _175
REMARK   80  A    between atoms: _175  and  _176
REMARK   81  A    between atoms: _175  and  _178
REMARK   82  A    between atoms: _178  and  _179
REMARK   83  A    between atoms: _182  and  _184
REMARK   84  A    between atoms: _184  and  _185
REMARK   85  A    between atoms: _187  and  _189
REMARK   86  A    between atoms: _189  and  _190
REMARK   87  A    between atoms: _189  and  _192
REMARK   88  A    between atoms: _192  and  _193
REMARK   89  A    between atoms: _196  and  _198
REMARK   90  A    between atoms: _198  and  _199
REMARK   91  A    between atoms: _201  and  _203
REMARK   92  A    between atoms: _203  and  _204
REMARK   93  A    between atoms: _203  and  _206
REMARK   94  A    between atoms: _206  and  _207
REMARK   95  A    between atoms: _207  and  _208
REMARK   96  A    between atoms: _210  and  _212
REMARK   97  A    between atoms: _212  and  _213
REMARK   98  A    between atoms: _212  and  _215
REMARK   99  A    between atoms: _215  and  _216
REMARK  100  A    between atoms: _219  and  _221
REMARK  101  A    between atoms: _221  and  _222
REMARK  102  A    between atoms: _221  and  _224
REMARK  103  A    between atoms: _224  and  _225
REMARK  104  A    between atoms: _228  and  _230
REMARK  105  A    between atoms: _230  and  _231
REMARK  106  A    between atoms: _230  and  _233
REMARK  107  A    between atoms: _233  and  _234
REMARK  108  A    between atoms: _237  and  _239
REMARK  109  A    between atoms: _239  and  _240
REMARK  110  A    between atoms: _239  and  _242
REMARK  111  A    between atoms: _242  and  _243
REMARK  112  A    between atoms: _248  and  _250
REMARK  113  A    between atoms: _250  and  _251
REMARK  114  A    between atoms: _250  and  _253
REMARK  115  A    between atoms: _253  and  _254
REMARK  116  A    between atoms: _259  and  _261
REMARK  117  A    between atoms: _261  and  _262
REMARK  118  A    between atoms: _261  and  _264
REMARK  119  A    between atoms: _264  and  _265
REMARK  120  A    between atoms: _268  and  _270
REMARK  121  A    between atoms: _270  and  _271
REMARK  122  A    between atoms: _273  and  _275
REMARK  123  A    between atoms: _275  and  _276
REMARK  124  A    between atoms: _275  and  _278
REMARK  125  A    between atoms: _278  and  _279
REMARK  126  A    between atoms: _282  and  _284
REMARK  127  A    between atoms: _284  and  _285
REMARK  128  A    between atoms: _284  and  _287
REMARK  129  A    between atoms: _287  and  _288
REMARK  130  A    between atoms: _291  and  _293
REMARK  131  A    between atoms: _293  and  _294
REMARK  132  A    between atoms: _297  and  _299
REMARK  133  A    between atoms: _299  and  _300
REMARK  134  A    between atoms: _299  and  _302
REMARK  135  A    between atoms: _302  and  _303
REMARK  136  A    between atoms: _303  and  _304
REMARK  137  A    between atoms: _304  and  _305
REMARK  138  A    between atoms: _305  and  _306
REMARK  139  A    between atoms: _310  and  _312
REMARK  140  A    between atoms: _312  and  _313
REMARK  141  A    between atoms: _312  and  _315
REMARK  142  A    between atoms: _315  and  _316
REMARK  143  A    between atoms: _318  and  _320
REMARK  144  A    between atoms: _320  and  _321
REMARK  145  A    between atoms: _323  and  _325
REMARK  146  A    between atoms: _325  and  _326
REMARK  147  A    between atoms: _325  and  _328
REMARK  148  A    between atoms: _328  and  _329
REMARK  149  A    between atoms: _332  and  _334
REMARK  150  A    between atoms: _334  and  _335
REMARK  151  A    between atoms: _334  and  _337
REMARK  152  A    between atoms: _337  and  _338
REMARK  153  A    between atoms: _344  and  _346
REMARK  154  A    between atoms: _346  and  _347
REMARK  155  A    between atoms: _349  and  _351
REMARK  156  A    between atoms: _351  and  _352
REMARK  157  A    between atoms: _351  and  _354
REMARK  158  A    between atoms: _357  and  _359
REMARK  159  A    between atoms: _359  and  _360
REMARK  160  A    between atoms: _362  and  _364
REMARK  161  A    between atoms: _364  and  _365
REMARK  162  A    between atoms: _364  and  _367
REMARK  163  A    between atoms: _367  and  _368
REMARK  164  A    between atoms: _374  and  _376
REMARK  165  A    between atoms: _376  and  _377
REMARK  166  A    between atoms: _376  and  _379
REMARK  167  A    between atoms: _379  and  _380
REMARK  168  A    between atoms: _385  and  _386
REMARK  169  A    between atoms: _388  and  _390
REMARK  170  A    between atoms: _390  and  _391
REMARK  171  A    between atoms: _390  and  _393
REMARK  172  A    between atoms: _393  and  _394
REMARK  173  A    between atoms: _396  and  _398
REMARK  174  A    between atoms: _398  and  _399
REMARK  175  A    between atoms: _398  and  _401
REMARK  176  A    between atoms: _404  and  _406
REMARK  177  A    between atoms: _406  and  _407
REMARK  178  A    between atoms: _406  and  _409
REMARK  179  A    between atoms: _409  and  _410
REMARK  180  A    between atoms: _413  and  _415
REMARK  181  A    between atoms: _415  and  _416
REMARK  182  A    between atoms: _415  and  _418
REMARK  183  A    between atoms: _421  and  _423
REMARK  184  A    between atoms: _423  and  _424
REMARK  185  A    between atoms: _423  and  _426
REMARK  186  A    between atoms: _426  and  _427
REMARK  187  A    between atoms: _430  and  _432
REMARK  188  A    between atoms: _432  and  _433
REMARK  189  A    between atoms: _432  and  _435
REMARK  190  A    between atoms: _435  and  _436
REMARK  191  A    between atoms: _439  and  _441
REMARK  192  A    between atoms: _441  and  _442
REMARK  193  A    between atoms: _441  and  _444
REMARK  194  A    between atoms: _444  and  _445
REMARK  195  A    between atoms: _445  and  _446
REMARK  196  A    between atoms: _446  and  _447
REMARK  197  A    between atoms: _447  and  _448
REMARK  198  A    between atoms: _452  and  _454
REMARK  199  A    between atoms: _454  and  _455
REMARK  200  A    between atoms: _454  and  _457
REMARK  201  A    between atoms: _457  and  _458
REMARK  202  A    between atoms: _463  and  _465
REMARK  203  A    between atoms: _465  and  _466
REMARK  204  A    between atoms: _465  and  _468
REMARK  205  A    between atoms: _468  and  _469
REMARK  206  A    between atoms: _479  and  _481
REMARK  207  A    between atoms: _481  and  _482
REMARK  208  A    between atoms: _484  and  _486
REMARK  209  A    between atoms: _486  and  _487
REMARK  210  A    between atoms: _486  and  _489
REMARK  211  A    between atoms: _489  and  _490
REMARK  212  A    between atoms: _493  and  _495
REMARK  213  A    between atoms: _495  and  _496
REMARK  214  A    between atoms: _495  and  _498
REMARK  215  A    between atoms: _498  and  _499
REMARK  216  A    between atoms: _499  and  _500
REMARK  217  A    between atoms: _500  and  _501
REMARK  218  A    between atoms: _501  and  _502
REMARK  219  A    between atoms: _506  and  _508
REMARK  220  A    between atoms: _508  and  _509
REMARK  221  A    between atoms: _508  and  _511
REMARK                            x       y       z     vdW  Elec       q    Type
REMARK                         _______ _______ _______ _____ _____    ______ ____
ROOT
ATOM      1  O   HOH     1     -31.952  20.639 -25.364  0.00  0.00    +0.000 OA
ENDROOT
TORSDOF 0
