REMARK  Name = ../refined-set-2016/2qrg/2qrg_pocket.pdb
REMARK  263 active torsions:
REMARK  status: ('A' for Active; 'I' for Inactive)
REMARK    1  A    between atoms: _1  and  _3
REMARK    2  A    between atoms: _3  and  _4
REMARK    3  A    between atoms: _3  and  _6
REMARK    4  A    between atoms: _6  and  _7
REMARK    5  A    between atoms: _12  and  _13
REMARK    6  A    between atoms: _15  and  _17
REMARK    7  A    between atoms: _17  and  _18
REMARK    8  A    between atoms: _17  and  _20
REMARK    9  A    between atoms: _20  and  _21
REMARK   10  A    between atoms: _24  and  _26
REMARK   11  A    between atoms: _26  and  _27
REMARK   12  A    between atoms: _26  and  _29
REMARK   13  A    between atoms: _29  and  _30
REMARK   14  A    between atoms: _30  and  _31
REMARK   15  A    between atoms: _34  and  _36
REMARK   16  A    between atoms: _36  and  _37
REMARK   17  A    between atoms: _36  and  _39
REMARK   18  A    between atoms: _39  and  _40
REMARK   19  A    between atoms: _45  and  _47
REMARK   20  A    between atoms: _47  and  _48
REMARK   21  A    between atoms: _50  and  _52
REMARK   22  A    between atoms: _52  and  _53
REMARK   23  A    between atoms: _55  and  _57
REMARK   24  A    between atoms: _57  and  _58
REMARK   25  A    between atoms: _57  and  _60
REMARK   26  A    between atoms: _60  and  _61
REMARK   27  A    between atoms: _64  and  _66
REMARK   28  A    between atoms: _66  and  _67
REMARK   29  A    between atoms: _69  and  _71
REMARK   30  A    between atoms: _71  and  _72
REMARK   31  A    between atoms: _71  and  _74
REMARK   32  A    between atoms: _74  and  _75
REMARK   33  A    between atoms: _75  and  _76
REMARK   34  A    between atoms: _76  and  _77
REMARK   35  A    between atoms: _86  and  _88
REMARK   36  A    between atoms: _88  and  _89
REMARK   37  A    between atoms: _88  and  _91
REMARK   38  A    between atoms: _91  and  _92
REMARK   39  A    between atoms: _95  and  _97
REMARK   40  A    between atoms: _97  and  _98
REMARK   41  A    between atoms: _101  and  _103
REMARK   42  A    between atoms: _103  and  _104
REMARK   43  A    between atoms: _103  and  _106
REMARK   44  A    between atoms: _106  and  _107
REMARK   45  A    between atoms: _113  and  _115
REMARK   46  A    between atoms: _115  and  _116
REMARK   47  A    between atoms: _115  and  _118
REMARK   48  A    between atoms: _118  and  _119
REMARK   49  A    between atoms: _122  and  _124
REMARK   50  A    between atoms: _124  and  _125
REMARK   51  A    between atoms: _124  and  _127
REMARK   52  A    between atoms: _127  and  _128
REMARK   53  A    between atoms: _133  and  _134
REMARK   54  A    between atoms: _137  and  _138
REMARK   55  A    between atoms: _143  and  _145
REMARK   56  A    between atoms: _145  and  _146
REMARK   57  A    between atoms: _145  and  _148
REMARK   58  A    between atoms: _148  and  _149
REMARK   59  A    between atoms: _154  and  _156
REMARK   60  A    between atoms: _156  and  _157
REMARK   61  A    between atoms: _156  and  _159
REMARK   62  A    between atoms: _159  and  _160
REMARK   63  A    between atoms: _163  and  _165
REMARK   64  A    between atoms: _165  and  _166
REMARK   65  A    between atoms: _165  and  _168
REMARK   66  A    between atoms: _168  and  _169
REMARK   67  A    between atoms: _174  and  _176
REMARK   68  A    between atoms: _176  and  _177
REMARK   69  A    between atoms: _176  and  _179
REMARK   70  A    between atoms: _179  and  _180
REMARK   71  A    between atoms: _186  and  _188
REMARK   72  A    between atoms: _188  and  _189
REMARK   73  A    between atoms: _188  and  _191
REMARK   74  A    between atoms: _191  and  _192
REMARK   75  A    between atoms: _198  and  _200
REMARK   76  A    between atoms: _200  and  _201
REMARK   77  A    between atoms: _200  and  _203
REMARK   78  A    between atoms: _203  and  _204
REMARK   79  A    between atoms: _204  and  _205
REMARK   80  A    between atoms: _208  and  _210
REMARK   81  A    between atoms: _210  and  _211
REMARK   82  A    between atoms: _210  and  _213
REMARK   83  A    between atoms: _213  and  _214
REMARK   84  A    between atoms: _214  and  _215
REMARK   85  A    between atoms: _215  and  _216
REMARK   86  A    between atoms: _225  and  _227
REMARK   87  A    between atoms: _227  and  _228
REMARK   88  A    between atoms: _227  and  _230
REMARK   89  A    between atoms: _230  and  _231
REMARK   90  A    between atoms: _231  and  _232
REMARK   91  A    between atoms: _235  and  _237
REMARK   92  A    between atoms: _237  and  _238
REMARK   93  A    between atoms: _237  and  _240
REMARK   94  A    between atoms: _240  and  _241
REMARK   95  A    between atoms: _246  and  _248
REMARK   96  A    between atoms: _248  and  _249
REMARK   97  A    between atoms: _248  and  _251
REMARK   98  A    between atoms: _251  and  _252
REMARK   99  A    between atoms: _255  and  _257
REMARK  100  A    between atoms: _257  and  _258
REMARK  101  A    between atoms: _257  and  _260
REMARK  102  A    between atoms: _260  and  _261
REMARK  103  A    between atoms: _264  and  _266
REMARK  104  A    between atoms: _266  and  _267
REMARK  105  A    between atoms: _266  and  _269
REMARK  106  A    between atoms: _269  and  _270
REMARK  107  A    between atoms: _275  and  _277
REMARK  108  A    between atoms: _277  and  _278
REMARK  109  A    between atoms: _277  and  _280
REMARK  110  A    between atoms: _280  and  _281
REMARK  111  A    between atoms: _284  and  _286
REMARK  112  A    between atoms: _286  and  _287
REMARK  113  A    between atoms: _286  and  _289
REMARK  114  A    between atoms: _289  and  _290
REMARK  115  A    between atoms: _295  and  _297
REMARK  116  A    between atoms: _297  and  _298
REMARK  117  A    between atoms: _297  and  _300
REMARK  118  A    between atoms: _300  and  _301
REMARK  119  A    between atoms: _306  and  _308
REMARK  120  A    between atoms: _308  and  _309
REMARK  121  A    between atoms: _308  and  _311
REMARK  122  A    between atoms: _311  and  _312
REMARK  123  A    between atoms: _315  and  _317
REMARK  124  A    between atoms: _317  and  _318
REMARK  125  A    between atoms: _317  and  _320
REMARK  126  A    between atoms: _323  and  _325
REMARK  127  A    between atoms: _325  and  _326
REMARK  128  A    between atoms: _325  and  _328
REMARK  129  A    between atoms: _328  and  _329
REMARK  130  A    between atoms: _332  and  _334
REMARK  131  A    between atoms: _334  and  _335
REMARK  132  A    between atoms: _334  and  _337
REMARK  133  A    between atoms: _337  and  _338
REMARK  134  A    between atoms: _338  and  _339
REMARK  135  A    between atoms: _342  and  _344
REMARK  136  A    between atoms: _344  and  _345
REMARK  137  A    between atoms: _348  and  _350
REMARK  138  A    between atoms: _350  and  _351
REMARK  139  A    between atoms: _350  and  _353
REMARK  140  A    between atoms: _353  and  _354
REMARK  141  A    between atoms: _357  and  _359
REMARK  142  A    between atoms: _359  and  _360
REMARK  143  A    between atoms: _359  and  _362
REMARK  144  A    between atoms: _362  and  _363
REMARK  145  A    between atoms: _363  and  _364
REMARK  146  A    between atoms: _367  and  _369
REMARK  147  A    between atoms: _369  and  _370
REMARK  148  A    between atoms: _369  and  _372
REMARK  149  A    between atoms: _372  and  _373
REMARK  150  A    between atoms: _378  and  _380
REMARK  151  A    between atoms: _380  and  _381
REMARK  152  A    between atoms: _383  and  _385
REMARK  153  A    between atoms: _385  and  _386
REMARK  154  A    between atoms: _385  and  _388
REMARK  155  A    between atoms: _391  and  _393
REMARK  156  A    between atoms: _393  and  _394
REMARK  157  A    between atoms: _397  and  _399
REMARK  158  A    between atoms: _399  and  _400
REMARK  159  A    between atoms: _399  and  _402
REMARK  160  A    between atoms: _402  and  _403
REMARK  161  A    between atoms: _408  and  _410
REMARK  162  A    between atoms: _410  and  _411
REMARK  163  A    between atoms: _410  and  _413
REMARK  164  A    between atoms: _413  and  _414
REMARK  165  A    between atoms: _414  and  _415
REMARK  166  A    between atoms: _415  and  _416
REMARK  167  A    between atoms: _416  and  _417
REMARK  168  A    between atoms: _421  and  _423
REMARK  169  A    between atoms: _423  and  _424
REMARK  170  A    between atoms: _423  and  _426
REMARK  171  A    between atoms: _426  and  _427
REMARK  172  A    between atoms: _430  and  _432
REMARK  173  A    between atoms: _432  and  _433
REMARK  174  A    between atoms: _432  and  _435
REMARK  175  A    between atoms: _435  and  _436
REMARK  176  A    between atoms: _441  and  _443
REMARK  177  A    between atoms: _443  and  _444
REMARK  178  A    between atoms: _446  and  _448
REMARK  179  A    between atoms: _448  and  _449
REMARK  180  A    between atoms: _448  and  _451
REMARK  181  A    between atoms: _451  and  _452
REMARK  182  A    between atoms: _452  and  _453
REMARK  183  A    between atoms: _453  and  _454
REMARK  184  A    between atoms: _454  and  _455
REMARK  185  A    between atoms: _459  and  _461
REMARK  186  A    between atoms: _461  and  _462
REMARK  187  A    between atoms: _461  and  _464
REMARK  188  A    between atoms: _464  and  _465
REMARK  189  A    between atoms: _465  and  _466
REMARK  190  A    between atoms: _466  and  _467
REMARK  191  A    between atoms: _476  and  _478
REMARK  192  A    between atoms: _478  and  _479
REMARK  193  A    between atoms: _478  and  _481
REMARK  194  A    between atoms: _481  and  _482
REMARK  195  A    between atoms: _487  and  _488
REMARK  196  A    between atoms: _490  and  _492
REMARK  197  A    between atoms: _492  and  _493
REMARK  198  A    between atoms: _492  and  _495
REMARK  199  A    between atoms: _495  and  _496
REMARK  200  A    between atoms: _496  and  _497
REMARK  201  A    between atoms: _497  and  _498
REMARK  202  A    between atoms: _498  and  _499
REMARK  203  A    between atoms: _503  and  _505
REMARK  204  A    between atoms: _505  and  _506
REMARK  205  A    between atoms: _505  and  _508
REMARK  206  A    between atoms: _508  and  _509
REMARK  207  A    between atoms: _511  and  _513
REMARK  208  A    between atoms: _513  and  _514
REMARK  209  A    between atoms: _513  and  _516
REMARK  210  A    between atoms: _516  and  _517
REMARK  211  A    between atoms: _520  and  _522
REMARK  212  A    between atoms: _522  and  _523
REMARK  213  A    between atoms: _522  and  _525
REMARK  214  A    between atoms: _525  and  _526
REMARK  215  A    between atoms: _526  and  _527
REMARK  216  A    between atoms: _530  and  _532
REMARK  217  A    between atoms: _532  and  _533
REMARK  218  A    between atoms: _536  and  _538
REMARK  219  A    between atoms: _538  and  _539
REMARK  220  A    between atoms: _538  and  _541
REMARK  221  A    between atoms: _541  and  _542
REMARK  222  A    between atoms: _544  and  _546
REMARK  223  A    between atoms: _546  and  _547
REMARK  224  A    between atoms: _549  and  _551
REMARK  225  A    between atoms: _551  and  _552
REMARK  226  A    between atoms: _551  and  _554
REMARK  227  A    between atoms: _554  and  _555
REMARK  228  A    between atoms: _558  and  _560
REMARK  229  A    between atoms: _560  and  _561
REMARK  230  A    between atoms: _563  and  _565
REMARK  231  A    between atoms: _565  and  _566
REMARK  232  A    between atoms: _565  and  _568
REMARK  233  A    between atoms: _568  and  _569
REMARK  234  A    between atoms: _574  and  _576
REMARK  235  A    between atoms: _576  and  _577
REMARK  236  A    between atoms: _576  and  _579
REMARK  237  A    between atoms: _579  and  _580
REMARK  238  A    between atoms: _580  and  _581
REMARK  239  A    between atoms: _588  and  _589
REMARK  240  A    between atoms: _589  and  _605
REMARK  241  A    between atoms: _590  and  _592
REMARK  242  A    between atoms: _592  and  _593
REMARK  243  A    between atoms: _593  and  _594
REMARK  244  A    between atoms: _598  and  _600
REMARK  245  A    between atoms: _600  and  _601
REMARK  246  A    between atoms: _600  and  _608
REMARK  247  A    between atoms: _601  and  _602
REMARK  248  A    between atoms: _602  and  _603
REMARK  249  A    between atoms: _603  and  _604
REMARK  250  A    between atoms: _604  and  _605
REMARK  251  A    between atoms: _610  and  _612
REMARK  252  A    between atoms: _612  and  _613
REMARK  253  A    between atoms: _612  and  _615
REMARK  254  A    between atoms: _615  and  _616
REMARK  255  A    between atoms: _619  and  _621
REMARK  256  A    between atoms: _621  and  _622
REMARK  257  A    between atoms: _624  and  _626
REMARK  258  A    between atoms: _626  and  _627
REMARK  259  A    between atoms: _630  and  _632
REMARK  260  A    between atoms: _632  and  _633
REMARK  261  A    between atoms: _632  and  _635
REMARK  262  A    between atoms: _635  and  _636
REMARK  263  A    between atoms: _641  and  _642
REMARK                            x       y       z     vdW  Elec       q    Type
REMARK                         _______ _______ _______ _____ _____    ______ ____
ROOT
ATOM      1  CG  TYR A   1      33.415  11.385  36.357  0.00  0.00    -0.020 A 
ATOM      2  CD2 TYR A   1      33.027  12.719  36.462  0.00  0.00    -0.001 A 
ATOM      3  CE2 TYR A   1      33.065  13.567  35.357  0.00  0.00    +0.036 A 
ATOM      4  CZ  TYR A   1      33.491  13.077  34.135  0.00  0.00    +0.134 A 
ATOM      5  CE1 TYR A   1      33.878  11.758  34.004  0.00  0.00    +0.036 A 
ATOM      6  CD1 TYR A   1      33.843  10.920  35.114  0.00  0.00    -0.001 A 
ENDROOT
BRANCH   4   7
ATOM      7  OH  TYR A   1      33.529  13.907  33.033  0.00  0.00    -0.506 OA
ATOM      8  HH  TYR A   1      33.855  13.398  32.249  0.00  0.00    +0.292 HD
ENDBRANCH   4   7
BRANCH   1   9
ATOM      9  CB  TYR A   1      33.386  10.468  37.555  0.00  0.00    +0.051 C 
BRANCH   9  10
ATOM     10  CA  TYR A   1      34.718  10.403  38.308  0.00  0.00    +0.137 C 
BRANCH  10  11
ATOM     11  N   TYR A   1      34.757   9.239  39.175  0.00  0.00    -0.239 NA
ATOM     12  H   TYR A   1      33.913   8.998  39.732  0.00  0.00    +0.142 HD
ENDBRANCH  10  11
BRANCH  10  13
ATOM     13  C   TYR A   1      34.936  11.662  39.144  0.00  0.00    +0.224 C 
ATOM     14  O   TYR A   1      34.041  12.089  39.875  0.00  0.00    -0.287 OA
ENDBRANCH  10  13
ENDBRANCH   9  10
ENDBRANCH   1   9
TORSDOF 5
REMARK  Name = ../refined-set-2016/2qrg/2qrg_pocket.pdb
REMARK  263 active torsions:
REMARK  status: ('A' for Active; 'I' for Inactive)
REMARK    1  A    between atoms: _1  and  _3
REMARK    2  A    between atoms: _3  and  _4
REMARK    3  A    between atoms: _3  and  _6
REMARK    4  A    between atoms: _6  and  _7
REMARK    5  A    between atoms: _12  and  _13
REMARK    6  A    between atoms: _15  and  _17
REMARK    7  A    between atoms: _17  and  _18
REMARK    8  A    between atoms: _17  and  _20
REMARK    9  A    between atoms: _20  and  _21
REMARK   10  A    between atoms: _24  and  _26
REMARK   11  A    between atoms: _26  and  _27
REMARK   12  A    between atoms: _26  and  _29
REMARK   13  A    between atoms: _29  and  _30
REMARK   14  A    between atoms: _30  and  _31
REMARK   15  A    between atoms: _34  and  _36
REMARK   16  A    between atoms: _36  and  _37
REMARK   17  A    between atoms: _36  and  _39
REMARK   18  A    between atoms: _39  and  _40
REMARK   19  A    between atoms: _45  and  _47
REMARK   20  A    between atoms: _47  and  _48
REMARK   21  A    between atoms: _50  and  _52
REMARK   22  A    between atoms: _52  and  _53
REMARK   23  A    between atoms: _55  and  _57
REMARK   24  A    between atoms: _57  and  _58
REMARK   25  A    between atoms: _57  and  _60
REMARK   26  A    between atoms: _60  and  _61
REMARK   27  A    between atoms: _64  and  _66
REMARK   28  A    between atoms: _66  and  _67
REMARK   29  A    between atoms: _69  and  _71
REMARK   30  A    between atoms: _71  and  _72
REMARK   31  A    between atoms: _71  and  _74
REMARK   32  A    between atoms: _74  and  _75
REMARK   33  A    between atoms: _75  and  _76
REMARK   34  A    between atoms: _76  and  _77
REMARK   35  A    between atoms: _86  and  _88
REMARK   36  A    between atoms: _88  and  _89
REMARK   37  A    between atoms: _88  and  _91
REMARK   38  A    between atoms: _91  and  _92
REMARK   39  A    between atoms: _95  and  _97
REMARK   40  A    between atoms: _97  and  _98
REMARK   41  A    between atoms: _101  and  _103
REMARK   42  A    between atoms: _103  and  _104
REMARK   43  A    between atoms: _103  and  _106
REMARK   44  A    between atoms: _106  and  _107
REMARK   45  A    between atoms: _113  and  _115
REMARK   46  A    between atoms: _115  and  _116
REMARK   47  A    between atoms: _115  and  _118
REMARK   48  A    between atoms: _118  and  _119
REMARK   49  A    between atoms: _122  and  _124
REMARK   50  A    between atoms: _124  and  _125
REMARK   51  A    between atoms: _124  and  _127
REMARK   52  A    between atoms: _127  and  _128
REMARK   53  A    between atoms: _133  and  _134
REMARK   54  A    between atoms: _137  and  _138
REMARK   55  A    between atoms: _143  and  _145
REMARK   56  A    between atoms: _145  and  _146
REMARK   57  A    between atoms: _145  and  _148
REMARK   58  A    between atoms: _148  and  _149
REMARK   59  A    between atoms: _154  and  _156
REMARK   60  A    between atoms: _156  and  _157
REMARK   61  A    between atoms: _156  and  _159
REMARK   62  A    between atoms: _159  and  _160
REMARK   63  A    between atoms: _163  and  _165
REMARK   64  A    between atoms: _165  and  _166
REMARK   65  A    between atoms: _165  and  _168
REMARK   66  A    between atoms: _168  and  _169
REMARK   67  A    between atoms: _174  and  _176
REMARK   68  A    between atoms: _176  and  _177
REMARK   69  A    between atoms: _176  and  _179
REMARK   70  A    between atoms: _179  and  _180
REMARK   71  A    between atoms: _186  and  _188
REMARK   72  A    between atoms: _188  and  _189
REMARK   73  A    between atoms: _188  and  _191
REMARK   74  A    between atoms: _191  and  _192
REMARK   75  A    between atoms: _198  and  _200
REMARK   76  A    between atoms: _200  and  _201
REMARK   77  A    between atoms: _200  and  _203
REMARK   78  A    between atoms: _203  and  _204
REMARK   79  A    between atoms: _204  and  _205
REMARK   80  A    between atoms: _208  and  _210
REMARK   81  A    between atoms: _210  and  _211
REMARK   82  A    between atoms: _210  and  _213
REMARK   83  A    between atoms: _213  and  _214
REMARK   84  A    between atoms: _214  and  _215
REMARK   85  A    between atoms: _215  and  _216
REMARK   86  A    between atoms: _225  and  _227
REMARK   87  A    between atoms: _227  and  _228
REMARK   88  A    between atoms: _227  and  _230
REMARK   89  A    between atoms: _230  and  _231
REMARK   90  A    between atoms: _231  and  _232
REMARK   91  A    between atoms: _235  and  _237
REMARK   92  A    between atoms: _237  and  _238
REMARK   93  A    between atoms: _237  and  _240
REMARK   94  A    between atoms: _240  and  _241
REMARK   95  A    between atoms: _246  and  _248
REMARK   96  A    between atoms: _248  and  _249
REMARK   97  A    between atoms: _248  and  _251
REMARK   98  A    between atoms: _251  and  _252
REMARK   99  A    between atoms: _255  and  _257
REMARK  100  A    between atoms: _257  and  _258
REMARK  101  A    between atoms: _257  and  _260
REMARK  102  A    between atoms: _260  and  _261
REMARK  103  A    between atoms: _264  and  _266
REMARK  104  A    between atoms: _266  and  _267
REMARK  105  A    between atoms: _266  and  _269
REMARK  106  A    between atoms: _269  and  _270
REMARK  107  A    between atoms: _275  and  _277
REMARK  108  A    between atoms: _277  and  _278
REMARK  109  A    between atoms: _277  and  _280
REMARK  110  A    between atoms: _280  and  _281
REMARK  111  A    between atoms: _284  and  _286
REMARK  112  A    between atoms: _286  and  _287
REMARK  113  A    between atoms: _286  and  _289
REMARK  114  A    between atoms: _289  and  _290
REMARK  115  A    between atoms: _295  and  _297
REMARK  116  A    between atoms: _297  and  _298
REMARK  117  A    between atoms: _297  and  _300
REMARK  118  A    between atoms: _300  and  _301
REMARK  119  A    between atoms: _306  and  _308
REMARK  120  A    between atoms: _308  and  _309
REMARK  121  A    between atoms: _308  and  _311
REMARK  122  A    between atoms: _311  and  _312
REMARK  123  A    between atoms: _315  and  _317
REMARK  124  A    between atoms: _317  and  _318
REMARK  125  A    between atoms: _317  and  _320
REMARK  126  A    between atoms: _323  and  _325
REMARK  127  A    between atoms: _325  and  _326
REMARK  128  A    between atoms: _325  and  _328
REMARK  129  A    between atoms: _328  and  _329
REMARK  130  A    between atoms: _332  and  _334
REMARK  131  A    between atoms: _334  and  _335
REMARK  132  A    between atoms: _334  and  _337
REMARK  133  A    between atoms: _337  and  _338
REMARK  134  A    between atoms: _338  and  _339
REMARK  135  A    between atoms: _342  and  _344
REMARK  136  A    between atoms: _344  and  _345
REMARK  137  A    between atoms: _348  and  _350
REMARK  138  A    between atoms: _350  and  _351
REMARK  139  A    between atoms: _350  and  _353
REMARK  140  A    between atoms: _353  and  _354
REMARK  141  A    between atoms: _357  and  _359
REMARK  142  A    between atoms: _359  and  _360
REMARK  143  A    between atoms: _359  and  _362
REMARK  144  A    between atoms: _362  and  _363
REMARK  145  A    between atoms: _363  and  _364
REMARK  146  A    between atoms: _367  and  _369
REMARK  147  A    between atoms: _369  and  _370
REMARK  148  A    between atoms: _369  and  _372
REMARK  149  A    between atoms: _372  and  _373
REMARK  150  A    between atoms: _378  and  _380
REMARK  151  A    between atoms: _380  and  _381
REMARK  152  A    between atoms: _383  and  _385
REMARK  153  A    between atoms: _385  and  _386
REMARK  154  A    between atoms: _385  and  _388
REMARK  155  A    between atoms: _391  and  _393
REMARK  156  A    between atoms: _393  and  _394
REMARK  157  A    between atoms: _397  and  _399
REMARK  158  A    between atoms: _399  and  _400
REMARK  159  A    between atoms: _399  and  _402
REMARK  160  A    between atoms: _402  and  _403
REMARK  161  A    between atoms: _408  and  _410
REMARK  162  A    between atoms: _410  and  _411
REMARK  163  A    between atoms: _410  and  _413
REMARK  164  A    between atoms: _413  and  _414
REMARK  165  A    between atoms: _414  and  _415
REMARK  166  A    between atoms: _415  and  _416
REMARK  167  A    between atoms: _416  and  _417
REMARK  168  A    between atoms: _421  and  _423
REMARK  169  A    between atoms: _423  and  _424
REMARK  170  A    between atoms: _423  and  _426
REMARK  171  A    between atoms: _426  and  _427
REMARK  172  A    between atoms: _430  and  _432
REMARK  173  A    between atoms: _432  and  _433
REMARK  174  A    between atoms: _432  and  _435
REMARK  175  A    between atoms: _435  and  _436
REMARK  176  A    between atoms: _441  and  _443
REMARK  177  A    between atoms: _443  and  _444
REMARK  178  A    between atoms: _446  and  _448
REMARK  179  A    between atoms: _448  and  _449
REMARK  180  A    between atoms: _448  and  _451
REMARK  181  A    between atoms: _451  and  _452
REMARK  182  A    between atoms: _452  and  _453
REMARK  183  A    between atoms: _453  and  _454
REMARK  184  A    between atoms: _454  and  _455
REMARK  185  A    between atoms: _459  and  _461
REMARK  186  A    between atoms: _461  and  _462
REMARK  187  A    between atoms: _461  and  _464
REMARK  188  A    between atoms: _464  and  _465
REMARK  189  A    between atoms: _465  and  _466
REMARK  190  A    between atoms: _466  and  _467
REMARK  191  A    between atoms: _476  and  _478
REMARK  192  A    between atoms: _478  and  _479
REMARK  193  A    between atoms: _478  and  _481
REMARK  194  A    between atoms: _481  and  _482
REMARK  195  A    between atoms: _487  and  _488
REMARK  196  A    between atoms: _490  and  _492
REMARK  197  A    between atoms: _492  and  _493
REMARK  198  A    between atoms: _492  and  _495
REMARK  199  A    between atoms: _495  and  _496
REMARK  200  A    between atoms: _496  and  _497
REMARK  201  A    between atoms: _497  and  _498
REMARK  202  A    between atoms: _498  and  _499
REMARK  203  A    between atoms: _503  and  _505
REMARK  204  A    between atoms: _505  and  _506
REMARK  205  A    between atoms: _505  and  _508
REMARK  206  A    between atoms: _508  and  _509
REMARK  207  A    between atoms: _511  and  _513
REMARK  208  A    between atoms: _513  and  _514
REMARK  209  A    between atoms: _513  and  _516
REMARK  210  A    between atoms: _516  and  _517
REMARK  211  A    between atoms: _520  and  _522
REMARK  212  A    between atoms: _522  and  _523
REMARK  213  A    between atoms: _522  and  _525
REMARK  214  A    between atoms: _525  and  _526
REMARK  215  A    between atoms: _526  and  _527
REMARK  216  A    between atoms: _530  and  _532
REMARK  217  A    between atoms: _532  and  _533
REMARK  218  A    between atoms: _536  and  _538
REMARK  219  A    between atoms: _538  and  _539
REMARK  220  A    between atoms: _538  and  _541
REMARK  221  A    between atoms: _541  and  _542
REMARK  222  A    between atoms: _544  and  _546
REMARK  223  A    between atoms: _546  and  _547
REMARK  224  A    between atoms: _549  and  _551
REMARK  225  A    between atoms: _551  and  _552
REMARK  226  A    between atoms: _551  and  _554
REMARK  227  A    between atoms: _554  and  _555
REMARK  228  A    between atoms: _558  and  _560
REMARK  229  A    between atoms: _560  and  _561
REMARK  230  A    between atoms: _563  and  _565
REMARK  231  A    between atoms: _565  and  _566
REMARK  232  A    between atoms: _565  and  _568
REMARK  233  A    between atoms: _568  and  _569
REMARK  234  A    between atoms: _574  and  _576
REMARK  235  A    between atoms: _576  and  _577
REMARK  236  A    between atoms: _576  and  _579
REMARK  237  A    between atoms: _579  and  _580
REMARK  238  A    between atoms: _580  and  _581
REMARK  239  A    between atoms: _588  and  _589
REMARK  240  A    between atoms: _589  and  _605
REMARK  241  A    between atoms: _590  and  _592
REMARK  242  A    between atoms: _592  and  _593
REMARK  243  A    between atoms: _593  and  _594
REMARK  244  A    between atoms: _598  and  _600
REMARK  245  A    between atoms: _600  and  _601
REMARK  246  A    between atoms: _600  and  _608
REMARK  247  A    between atoms: _601  and  _602
REMARK  248  A    between atoms: _602  and  _603
REMARK  249  A    between atoms: _603  and  _604
REMARK  250  A    between atoms: _604  and  _605
REMARK  251  A    between atoms: _610  and  _612
REMARK  252  A    between atoms: _612  and  _613
REMARK  253  A    between atoms: _612  and  _615
REMARK  254  A    between atoms: _615  and  _616
REMARK  255  A    between atoms: _619  and  _621
REMARK  256  A    between atoms: _621  and  _622
REMARK  257  A    between atoms: _624  and  _626
REMARK  258  A    between atoms: _626  and  _627
REMARK  259  A    between atoms: _630  and  _632
REMARK  260  A    between atoms: _632  and  _633
REMARK  261  A    between atoms: _632  and  _635
REMARK  262  A    between atoms: _635  and  _636
REMARK  263  A    between atoms: _641  and  _642
REMARK                            x       y       z     vdW  Elec       q    Type
REMARK                         _______ _______ _______ _____ _____    ______ ____
ROOT
ATOM      1  C   LEU A   1      33.737  20.849  40.256  0.00  0.00    +0.238 C 
ATOM      2  O   LEU A   1      33.285  21.730  40.990  0.00  0.00    -0.274 OA
ATOM      3  N   GLU A   2      33.054  20.313  39.242  0.00  0.00    -0.298 N 
ATOM      4  H   GLU A   2      33.477  19.524  38.713  0.00  0.00    +0.150 HD
ENDROOT
BRANCH   1   5
ATOM      5  CA  LEU A   1      35.138  20.306  40.485  0.00  0.00    +0.145 C 
BRANCH   5   6
ATOM      6  N   LEU A   1      35.398  19.161  39.624  0.00  0.00    -0.238 NA
ATOM      7  H   LEU A   1      35.902  19.293  38.724  0.00  0.00    +0.142 HD
ENDBRANCH   5   6
BRANCH   5   8
ATOM      8  CB  LEU A   1      36.184  21.407  40.271  0.00  0.00    +0.026 C 
BRANCH   8   9
ATOM      9  CG  LEU A   1      37.482  21.299  41.088  0.00  0.00    +0.002 C 
ATOM     10  CD2 LEU A   1      37.250  21.767  42.507  0.00  0.00    +0.000 C 
ATOM     11  CD1 LEU A   1      38.085  19.894  41.077  0.00  0.00    +0.000 C 
ENDBRANCH   8   9
ENDBRANCH   5   8
ENDBRANCH   1   5
BRANCH   3  12
ATOM     12  CA  GLU A   2      31.731  20.799  38.850  0.00  0.00    +0.137 C 
BRANCH  12  13
ATOM     13  C   GLU A   2      30.759  19.663  38.534  0.00  0.00    +0.227 C 
ATOM     14  O   GLU A   2      31.096  18.738  37.798  0.00  0.00    -0.286 OA
ENDBRANCH  12  13
BRANCH  12  15
ATOM     15  CB  GLU A   2      31.837  21.739  37.643  0.00  0.00    +0.039 C 
BRANCH  15  16
ATOM     16  CG  GLU A   2      32.656  22.999  37.908  0.00  0.00    +0.116 C 
BRANCH  16  17
ATOM     17  CD  GLU A   2      32.631  23.988  36.763  0.00  0.00    +0.365 C 
ATOM     18  OE2 GLU A   2      33.597  24.768  36.647  0.00  0.00    -0.246 OA
ATOM     19  OE1 GLU A   2      31.652  24.003  35.987  0.00  0.00    -0.246 OA
ENDBRANCH  16  17
ENDBRANCH  15  16
ENDBRANCH  12  15
ENDBRANCH   3  12
TORSDOF 9
REMARK  Name = ../refined-set-2016/2qrg/2qrg_pocket.pdb
REMARK  263 active torsions:
REMARK  status: ('A' for Active; 'I' for Inactive)
REMARK    1  A    between atoms: _1  and  _3
REMARK    2  A    between atoms: _3  and  _4
REMARK    3  A    between atoms: _3  and  _6
REMARK    4  A    between atoms: _6  and  _7
REMARK    5  A    between atoms: _12  and  _13
REMARK    6  A    between atoms: _15  and  _17
REMARK    7  A    between atoms: _17  and  _18
REMARK    8  A    between atoms: _17  and  _20
REMARK    9  A    between atoms: _20  and  _21
REMARK   10  A    between atoms: _24  and  _26
REMARK   11  A    between atoms: _26  and  _27
REMARK   12  A    between atoms: _26  and  _29
REMARK   13  A    between atoms: _29  and  _30
REMARK   14  A    between atoms: _30  and  _31
REMARK   15  A    between atoms: _34  and  _36
REMARK   16  A    between atoms: _36  and  _37
REMARK   17  A    between atoms: _36  and  _39
REMARK   18  A    between atoms: _39  and  _40
REMARK   19  A    between atoms: _45  and  _47
REMARK   20  A    between atoms: _47  and  _48
REMARK   21  A    between atoms: _50  and  _52
REMARK   22  A    between atoms: _52  and  _53
REMARK   23  A    between atoms: _55  and  _57
REMARK   24  A    between atoms: _57  and  _58
REMARK   25  A    between atoms: _57  and  _60
REMARK   26  A    between atoms: _60  and  _61
REMARK   27  A    between atoms: _64  and  _66
REMARK   28  A    between atoms: _66  and  _67
REMARK   29  A    between atoms: _69  and  _71
REMARK   30  A    between atoms: _71  and  _72
REMARK   31  A    between atoms: _71  and  _74
REMARK   32  A    between atoms: _74  and  _75
REMARK   33  A    between atoms: _75  and  _76
REMARK   34  A    between atoms: _76  and  _77
REMARK   35  A    between atoms: _86  and  _88
REMARK   36  A    between atoms: _88  and  _89
REMARK   37  A    between atoms: _88  and  _91
REMARK   38  A    between atoms: _91  and  _92
REMARK   39  A    between atoms: _95  and  _97
REMARK   40  A    between atoms: _97  and  _98
REMARK   41  A    between atoms: _101  and  _103
REMARK   42  A    between atoms: _103  and  _104
REMARK   43  A    between atoms: _103  and  _106
REMARK   44  A    between atoms: _106  and  _107
REMARK   45  A    between atoms: _113  and  _115
REMARK   46  A    between atoms: _115  and  _116
REMARK   47  A    between atoms: _115  and  _118
REMARK   48  A    between atoms: _118  and  _119
REMARK   49  A    between atoms: _122  and  _124
REMARK   50  A    between atoms: _124  and  _125
REMARK   51  A    between atoms: _124  and  _127
REMARK   52  A    between atoms: _127  and  _128
REMARK   53  A    between atoms: _133  and  _134
REMARK   54  A    between atoms: _137  and  _138
REMARK   55  A    between atoms: _143  and  _145
REMARK   56  A    between atoms: _145  and  _146
REMARK   57  A    between atoms: _145  and  _148
REMARK   58  A    between atoms: _148  and  _149
REMARK   59  A    between atoms: _154  and  _156
REMARK   60  A    between atoms: _156  and  _157
REMARK   61  A    between atoms: _156  and  _159
REMARK   62  A    between atoms: _159  and  _160
REMARK   63  A    between atoms: _163  and  _165
REMARK   64  A    between atoms: _165  and  _166
REMARK   65  A    between atoms: _165  and  _168
REMARK   66  A    between atoms: _168  and  _169
REMARK   67  A    between atoms: _174  and  _176
REMARK   68  A    between atoms: _176  and  _177
REMARK   69  A    between atoms: _176  and  _179
REMARK   70  A    between atoms: _179  and  _180
REMARK   71  A    between atoms: _186  and  _188
REMARK   72  A    between atoms: _188  and  _189
REMARK   73  A    between atoms: _188  and  _191
REMARK   74  A    between atoms: _191  and  _192
REMARK   75  A    between atoms: _198  and  _200
REMARK   76  A    between atoms: _200  and  _201
REMARK   77  A    between atoms: _200  and  _203
REMARK   78  A    between atoms: _203  and  _204
REMARK   79  A    between atoms: _204  and  _205
REMARK   80  A    between atoms: _208  and  _210
REMARK   81  A    between atoms: _210  and  _211
REMARK   82  A    between atoms: _210  and  _213
REMARK   83  A    between atoms: _213  and  _214
REMARK   84  A    between atoms: _214  and  _215
REMARK   85  A    between atoms: _215  and  _216
REMARK   86  A    between atoms: _225  and  _227
REMARK   87  A    between atoms: _227  and  _228
REMARK   88  A    between atoms: _227  and  _230
REMARK   89  A    between atoms: _230  and  _231
REMARK   90  A    between atoms: _231  and  _232
REMARK   91  A    between atoms: _235  and  _237
REMARK   92  A    between atoms: _237  and  _238
REMARK   93  A    between atoms: _237  and  _240
REMARK   94  A    between atoms: _240  and  _241
REMARK   95  A    between atoms: _246  and  _248
REMARK   96  A    between atoms: _248  and  _249
REMARK   97  A    between atoms: _248  and  _251
REMARK   98  A    between atoms: _251  and  _252
REMARK   99  A    between atoms: _255  and  _257
REMARK  100  A    between atoms: _257  and  _258
REMARK  101  A    between atoms: _257  and  _260
REMARK  102  A    between atoms: _260  and  _261
REMARK  103  A    between atoms: _264  and  _266
REMARK  104  A    between atoms: _266  and  _267
REMARK  105  A    between atoms: _266  and  _269
REMARK  106  A    between atoms: _269  and  _270
REMARK  107  A    between atoms: _275  and  _277
REMARK  108  A    between atoms: _277  and  _278
REMARK  109  A    between atoms: _277  and  _280
REMARK  110  A    between atoms: _280  and  _281
REMARK  111  A    between atoms: _284  and  _286
REMARK  112  A    between atoms: _286  and  _287
REMARK  113  A    between atoms: _286  and  _289
REMARK  114  A    between atoms: _289  and  _290
REMARK  115  A    between atoms: _295  and  _297
REMARK  116  A    between atoms: _297  and  _298
REMARK  117  A    between atoms: _297  and  _300
REMARK  118  A    between atoms: _300  and  _301
REMARK  119  A    between atoms: _306  and  _308
REMARK  120  A    between atoms: _308  and  _309
REMARK  121  A    between atoms: _308  and  _311
REMARK  122  A    between atoms: _311  and  _312
REMARK  123  A    between atoms: _315  and  _317
REMARK  124  A    between atoms: _317  and  _318
REMARK  125  A    between atoms: _317  and  _320
REMARK  126  A    between atoms: _323  and  _325
REMARK  127  A    between atoms: _325  and  _326
REMARK  128  A    between atoms: _325  and  _328
REMARK  129  A    between atoms: _328  and  _329
REMARK  130  A    between atoms: _332  and  _334
REMARK  131  A    between atoms: _334  and  _335
REMARK  132  A    between atoms: _334  and  _337
REMARK  133  A    between atoms: _337  and  _338
REMARK  134  A    between atoms: _338  and  _339
REMARK  135  A    between atoms: _342  and  _344
REMARK  136  A    between atoms: _344  and  _345
REMARK  137  A    between atoms: _348  and  _350
REMARK  138  A    between atoms: _350  and  _351
REMARK  139  A    between atoms: _350  and  _353
REMARK  140  A    between atoms: _353  and  _354
REMARK  141  A    between atoms: _357  and  _359
REMARK  142  A    between atoms: _359  and  _360
REMARK  143  A    between atoms: _359  and  _362
REMARK  144  A    between atoms: _362  and  _363
REMARK  145  A    between atoms: _363  and  _364
REMARK  146  A    between atoms: _367  and  _369
REMARK  147  A    between atoms: _369  and  _370
REMARK  148  A    between atoms: _369  and  _372
REMARK  149  A    between atoms: _372  and  _373
REMARK  150  A    between atoms: _378  and  _380
REMARK  151  A    between atoms: _380  and  _381
REMARK  152  A    between atoms: _383  and  _385
REMARK  153  A    between atoms: _385  and  _386
REMARK  154  A    between atoms: _385  and  _388
REMARK  155  A    between atoms: _391  and  _393
REMARK  156  A    between atoms: _393  and  _394
REMARK  157  A    between atoms: _397  and  _399
REMARK  158  A    between atoms: _399  and  _400
REMARK  159  A    between atoms: _399  and  _402
REMARK  160  A    between atoms: _402  and  _403
REMARK  161  A    between atoms: _408  and  _410
REMARK  162  A    between atoms: _410  and  _411
REMARK  163  A    between atoms: _410  and  _413
REMARK  164  A    between atoms: _413  and  _414
REMARK  165  A    between atoms: _414  and  _415
REMARK  166  A    between atoms: _415  and  _416
REMARK  167  A    between atoms: _416  and  _417
REMARK  168  A    between atoms: _421  and  _423
REMARK  169  A    between atoms: _423  and  _424
REMARK  170  A    between atoms: _423  and  _426
REMARK  171  A    between atoms: _426  and  _427
REMARK  172  A    between atoms: _430  and  _432
REMARK  173  A    between atoms: _432  and  _433
REMARK  174  A    between atoms: _432  and  _435
REMARK  175  A    between atoms: _435  and  _436
REMARK  176  A    between atoms: _441  and  _443
REMARK  177  A    between atoms: _443  and  _444
REMARK  178  A    between atoms: _446  and  _448
REMARK  179  A    between atoms: _448  and  _449
REMARK  180  A    between atoms: _448  and  _451
REMARK  181  A    between atoms: _451  and  _452
REMARK  182  A    between atoms: _452  and  _453
REMARK  183  A    between atoms: _453  and  _454
REMARK  184  A    between atoms: _454  and  _455
REMARK  185  A    between atoms: _459  and  _461
REMARK  186  A    between atoms: _461  and  _462
REMARK  187  A    between atoms: _461  and  _464
REMARK  188  A    between atoms: _464  and  _465
REMARK  189  A    between atoms: _465  and  _466
REMARK  190  A    between atoms: _466  and  _467
REMARK  191  A    between atoms: _476  and  _478
REMARK  192  A    between atoms: _478  and  _479
REMARK  193  A    between atoms: _478  and  _481
REMARK  194  A    between atoms: _481  and  _482
REMARK  195  A    between atoms: _487  and  _488
REMARK  196  A    between atoms: _490  and  _492
REMARK  197  A    between atoms: _492  and  _493
REMARK  198  A    between atoms: _492  and  _495
REMARK  199  A    between atoms: _495  and  _496
REMARK  200  A    between atoms: _496  and  _497
REMARK  201  A    between atoms: _497  and  _498
REMARK  202  A    between atoms: _498  and  _499
REMARK  203  A    between atoms: _503  and  _505
REMARK  204  A    between atoms: _505  and  _506
REMARK  205  A    between atoms: _505  and  _508
REMARK  206  A    between atoms: _508  and  _509
REMARK  207  A    between atoms: _511  and  _513
REMARK  208  A    between atoms: _513  and  _514
REMARK  209  A    between atoms: _513  and  _516
REMARK  210  A    between atoms: _516  and  _517
REMARK  211  A    between atoms: _520  and  _522
REMARK  212  A    between atoms: _522  and  _523
REMARK  213  A    between atoms: _522  and  _525
REMARK  214  A    between atoms: _525  and  _526
REMARK  215  A    between atoms: _526  and  _527
REMARK  216  A    between atoms: _530  and  _532
REMARK  217  A    between atoms: _532  and  _533
REMARK  218  A    between atoms: _536  and  _538
REMARK  219  A    between atoms: _538  and  _539
REMARK  220  A    between atoms: _538  and  _541
REMARK  221  A    between atoms: _541  and  _542
REMARK  222  A    between atoms: _544  and  _546
REMARK  223  A    between atoms: _546  and  _547
REMARK  224  A    between atoms: _549  and  _551
REMARK  225  A    between atoms: _551  and  _552
REMARK  226  A    between atoms: _551  and  _554
REMARK  227  A    between atoms: _554  and  _555
REMARK  228  A    between atoms: _558  and  _560
REMARK  229  A    between atoms: _560  and  _561
REMARK  230  A    between atoms: _563  and  _565
REMARK  231  A    between atoms: _565  and  _566
REMARK  232  A    between atoms: _565  and  _568
REMARK  233  A    between atoms: _568  and  _569
REMARK  234  A    between atoms: _574  and  _576
REMARK  235  A    between atoms: _576  and  _577
REMARK  236  A    between atoms: _576  and  _579
REMARK  237  A    between atoms: _579  and  _580
REMARK  238  A    between atoms: _580  and  _581
REMARK  239  A    between atoms: _588  and  _589
REMARK  240  A    between atoms: _589  and  _605
REMARK  241  A    between atoms: _590  and  _592
REMARK  242  A    between atoms: _592  and  _593
REMARK  243  A    between atoms: _593  and  _594
REMARK  244  A    between atoms: _598  and  _600
REMARK  245  A    between atoms: _600  and  _601
REMARK  246  A    between atoms: _600  and  _608
REMARK  247  A    between atoms: _601  and  _602
REMARK  248  A    between atoms: _602  and  _603
REMARK  249  A    between atoms: _603  and  _604
REMARK  250  A    between atoms: _604  and  _605
REMARK  251  A    between atoms: _610  and  _612
REMARK  252  A    between atoms: _612  and  _613
REMARK  253  A    between atoms: _612  and  _615
REMARK  254  A    between atoms: _615  and  _616
REMARK  255  A    between atoms: _619  and  _621
REMARK  256  A    between atoms: _621  and  _622
REMARK  257  A    between atoms: _624  and  _626
REMARK  258  A    between atoms: _626  and  _627
REMARK  259  A    between atoms: _630  and  _632
REMARK  260  A    between atoms: _632  and  _633
REMARK  261  A    between atoms: _632  and  _635
REMARK  262  A    between atoms: _635  and  _636
REMARK  263  A    between atoms: _641  and  _642
REMARK                            x       y       z     vdW  Elec       q    Type
REMARK                         _______ _______ _______ _____ _____    ______ ____
ROOT
ATOM      1  C   GLY A   5      28.388  19.769  34.452  0.00  0.00    +0.243 C 
ATOM      2  O   GLY A   5      28.026  18.803  35.119  0.00  0.00    -0.273 OA
ATOM      3  N   ARG A   6      27.731  20.185  33.373  0.00  0.00    -0.297 N 
ATOM      4  H   ARG A   6      28.068  21.022  32.856  0.00  0.00    +0.150 HD
ENDROOT
BRANCH   3   5
ATOM      5  CA  ARG A   6      26.536  19.475  32.904  0.00  0.00    +0.149 C 
BRANCH   5   6
ATOM      6  C   ARG A   6      26.906  18.128  32.286  0.00  0.00    +0.241 C 
ATOM      7  O   ARG A   6      26.161  17.159  32.425  0.00  0.00    -0.273 OA
ATOM      8  N   LEU A   7      28.058  18.063  31.622  0.00  0.00    -0.297 N 
ATOM      9  H   LEU A   7      28.611  18.931  31.473  0.00  0.00    +0.150 HD
BRANCH   8  10
ATOM     10  CA  LEU A   7      28.562  16.788  31.096  0.00  0.00    +0.149 C 
BRANCH  10  11
ATOM     11  C   LEU A   7      28.738  15.762  32.212  0.00  0.00    +0.241 C 
ATOM     12  N   ALA A   8      29.335  16.192  33.325  0.00  0.00    -0.298 N 
ATOM     13  H   ALA A   8      29.696  17.167  33.362  0.00  0.00    +0.150 HD
ATOM     14  O   LEU A   7      28.336  14.606  32.071  0.00  0.00    -0.273 OA
BRANCH  12  15
ATOM     15  CA  ALA A   8      29.495  15.330  34.493  0.00  0.00    +0.137 C 
ATOM     16  CB  ALA A   8      30.197  16.082  35.620  0.00  0.00    +0.030 C 
BRANCH  15  17
ATOM     17  C   ALA A   8      28.138  14.792  34.967  0.00  0.00    +0.227 C 
ATOM     18  O   ALA A   8      28.018  13.618  35.317  0.00  0.00    -0.286 OA
ENDBRANCH  15  17
ENDBRANCH  12  15
ENDBRANCH  10  11
BRANCH  10  19
ATOM     19  CB  LEU A   7      29.881  16.972  30.336  0.00  0.00    +0.029 C 
BRANCH  19  20
ATOM     20  CG  LEU A   7      30.372  15.721  29.584  0.00  0.00    +0.002 C 
ATOM     21  CD2 LEU A   7      31.869  15.800  29.314  0.00  0.00    +0.000 C 
ATOM     22  CD1 LEU A   7      29.592  15.530  28.280  0.00  0.00    +0.000 C 
ENDBRANCH  19  20
ENDBRANCH  10  19
ENDBRANCH   8  10
ENDBRANCH   5   6
BRANCH   5  23
ATOM     23  CB  ARG A   6      25.709  20.335  31.936  0.00  0.00    +0.033 C 
BRANCH  23  24
ATOM     24  CG  ARG A   6      24.401  19.685  31.450  0.00  0.00    +0.045 C 
BRANCH  24  25
ATOM     25  CD  ARG A   6      23.486  19.268  32.613  0.00  0.00    +0.174 C 
BRANCH  25  26
ATOM     26  NE  ARG A   6      23.069  17.873  32.475  0.00  0.00    -0.265 N 
ATOM     27  CZ  ARG A   6      22.264  17.230  33.318  0.00  0.00    +0.342 C 
ATOM     28  NH2 ARG A   6      21.783  17.846  34.390  0.00  0.00    -0.292 N 
ATOM     29 HH21 ARG A   6      21.155  17.337  35.044  0.00  0.00    +0.255 HD
ATOM     30 HH22 ARG A   6      22.034  18.838  34.576  0.00  0.00    +0.255 HD
ATOM     31  NH1 ARG A   6      21.956  15.955  33.096  0.00  0.00    -0.292 N 
ATOM     32 HH11 ARG A   6      21.327  15.450  33.753  0.00  0.00    +0.255 HD
ATOM     33 HH12 ARG A   6      22.344  15.463  32.266  0.00  0.00    +0.255 HD
ATOM     34  HE  ARG A   6      23.429  17.343  31.656  0.00  0.00    +0.259 HD
ENDBRANCH  25  26
ENDBRANCH  24  25
ENDBRANCH  23  24
ENDBRANCH   5  23
ENDBRANCH   3   5
BRANCH   1  35
ATOM     35  CA  GLY A   5      29.631  20.556  34.841  0.00  0.00    +0.176 C 
BRANCH  35  37
ATOM     36  C   LEU A   4      31.014  20.203  32.858  0.00  0.00    +0.241 C 
ATOM     37  N   GLY A   5      30.373  21.033  33.679  0.00  0.00    -0.295 N 
ATOM     38  H   GLY A   5      30.402  22.054  33.485  0.00  0.00    +0.150 HD
ATOM     39  O   LEU A   4      31.051  18.979  33.026  0.00  0.00    -0.273 OA
BRANCH  36  40
ATOM     40  CA  LEU A   4      31.721  20.848  31.661  0.00  0.00    +0.149 C 
BRANCH  40  42
ATOM     41  C   GLY A   3      29.742  21.440  30.348  0.00  0.00    +0.243 C 
ATOM     42  N   LEU A   4      30.849  21.819  30.984  0.00  0.00    -0.297 N 
ATOM     43  H   LEU A   4      31.103  22.827  31.002  0.00  0.00    +0.150 HD
ATOM     44  O   GLY A   3      29.351  20.270  30.321  0.00  0.00    -0.273 OA
BRANCH  41  45
ATOM     45  CA  GLY A   3      28.956  22.526  29.633  0.00  0.00    +0.176 C 
BRANCH  45  48
ATOM     46  C   GLY A   2      28.164  23.881  31.531  0.00  0.00    +0.243 C 
ATOM     47  O   GLY A   2      27.879  22.908  32.227  0.00  0.00    -0.273 OA
ATOM     48  N   GLY A   3      28.768  23.797  30.347  0.00  0.00    -0.295 N 
ATOM     49  H   GLY A   3      29.123  24.670  29.908  0.00  0.00    +0.150 HD
BRANCH  46  50
ATOM     50  CA  GLY A   2      27.856  25.274  32.019  0.00  0.00    +0.176 C 
BRANCH  50  53
ATOM     51  C   ASN A   1      28.509  26.713  33.870  0.00  0.00    +0.239 C 
ATOM     52  O   ASN A   1      27.936  27.689  33.390  0.00  0.00    -0.274 OA
ATOM     53  N   GLY A   2      28.482  25.505  33.315  0.00  0.00    -0.296 N 
ATOM     54  H   GLY A   2      28.918  24.706  33.818  0.00  0.00    +0.150 HD
BRANCH  51  55
ATOM     55  CA  ASN A   1      29.316  26.842  35.149  0.00  0.00    +0.154 C 
BRANCH  55  56
ATOM     56  N   ASN A   1      29.347  25.625  35.955  0.00  0.00    -0.238 NA
ATOM     57  H   ASN A   1      30.081  24.916  35.754  0.00  0.00    +0.142 HD
ENDBRANCH  55  56
BRANCH  55  58
ATOM     58  CB  ASN A   1      30.740  27.244  34.785  0.00  0.00    +0.111 C 
BRANCH  58  59
ATOM     59  CG  ASN A   1      31.405  28.022  35.876  0.00  0.00    +0.221 C 
ATOM     60  ND2 ASN A   1      32.317  27.378  36.598  0.00  0.00    -0.329 N 
ATOM     61 HD21 ASN A   1      32.803  27.866  37.377  0.00  0.00    +0.145 HD
ATOM     62 HD22 ASN A   1      32.545  26.386  36.383  0.00  0.00    +0.145 HD
ATOM     63  OD1 ASN A   1      31.095  29.196  36.084  0.00  0.00    -0.275 OA
ENDBRANCH  58  59
ENDBRANCH  55  58
ENDBRANCH  51  55
ENDBRANCH  50  53
ENDBRANCH  46  50
ENDBRANCH  45  48
ENDBRANCH  41  45
ENDBRANCH  40  42
BRANCH  40  64
ATOM     64  CB  LEU A   4      33.055  21.500  32.079  0.00  0.00    +0.029 C 
BRANCH  64  65
ATOM     65  CG  LEU A   4      34.079  20.659  32.860  0.00  0.00    +0.002 C 
ATOM     66  CD2 LEU A   4      33.891  20.829  34.358  0.00  0.00    +0.000 C 
ATOM     67  CD1 LEU A   4      35.518  21.006  32.482  0.00  0.00    +0.000 C 
ENDBRANCH  64  65
ENDBRANCH  40  64
ENDBRANCH  36  40
ENDBRANCH  35  37
ENDBRANCH   1  35
TORSDOF 26
REMARK  Name = ../refined-set-2016/2qrg/2qrg_pocket.pdb
REMARK  263 active torsions:
REMARK  status: ('A' for Active; 'I' for Inactive)
REMARK    1  A    between atoms: _1  and  _3
REMARK    2  A    between atoms: _3  and  _4
REMARK    3  A    between atoms: _3  and  _6
REMARK    4  A    between atoms: _6  and  _7
REMARK    5  A    between atoms: _12  and  _13
REMARK    6  A    between atoms: _15  and  _17
REMARK    7  A    between atoms: _17  and  _18
REMARK    8  A    between atoms: _17  and  _20
REMARK    9  A    between atoms: _20  and  _21
REMARK   10  A    between atoms: _24  and  _26
REMARK   11  A    between atoms: _26  and  _27
REMARK   12  A    between atoms: _26  and  _29
REMARK   13  A    between atoms: _29  and  _30
REMARK   14  A    between atoms: _30  and  _31
REMARK   15  A    between atoms: _34  and  _36
REMARK   16  A    between atoms: _36  and  _37
REMARK   17  A    between atoms: _36  and  _39
REMARK   18  A    between atoms: _39  and  _40
REMARK   19  A    between atoms: _45  and  _47
REMARK   20  A    between atoms: _47  and  _48
REMARK   21  A    between atoms: _50  and  _52
REMARK   22  A    between atoms: _52  and  _53
REMARK   23  A    between atoms: _55  and  _57
REMARK   24  A    between atoms: _57  and  _58
REMARK   25  A    between atoms: _57  and  _60
REMARK   26  A    between atoms: _60  and  _61
REMARK   27  A    between atoms: _64  and  _66
REMARK   28  A    between atoms: _66  and  _67
REMARK   29  A    between atoms: _69  and  _71
REMARK   30  A    between atoms: _71  and  _72
REMARK   31  A    between atoms: _71  and  _74
REMARK   32  A    between atoms: _74  and  _75
REMARK   33  A    between atoms: _75  and  _76
REMARK   34  A    between atoms: _76  and  _77
REMARK   35  A    between atoms: _86  and  _88
REMARK   36  A    between atoms: _88  and  _89
REMARK   37  A    between atoms: _88  and  _91
REMARK   38  A    between atoms: _91  and  _92
REMARK   39  A    between atoms: _95  and  _97
REMARK   40  A    between atoms: _97  and  _98
REMARK   41  A    between atoms: _101  and  _103
REMARK   42  A    between atoms: _103  and  _104
REMARK   43  A    between atoms: _103  and  _106
REMARK   44  A    between atoms: _106  and  _107
REMARK   45  A    between atoms: _113  and  _115
REMARK   46  A    between atoms: _115  and  _116
REMARK   47  A    between atoms: _115  and  _118
REMARK   48  A    between atoms: _118  and  _119
REMARK   49  A    between atoms: _122  and  _124
REMARK   50  A    between atoms: _124  and  _125
REMARK   51  A    between atoms: _124  and  _127
REMARK   52  A    between atoms: _127  and  _128
REMARK   53  A    between atoms: _133  and  _134
REMARK   54  A    between atoms: _137  and  _138
REMARK   55  A    between atoms: _143  and  _145
REMARK   56  A    between atoms: _145  and  _146
REMARK   57  A    between atoms: _145  and  _148
REMARK   58  A    between atoms: _148  and  _149
REMARK   59  A    between atoms: _154  and  _156
REMARK   60  A    between atoms: _156  and  _157
REMARK   61  A    between atoms: _156  and  _159
REMARK   62  A    between atoms: _159  and  _160
REMARK   63  A    between atoms: _163  and  _165
REMARK   64  A    between atoms: _165  and  _166
REMARK   65  A    between atoms: _165  and  _168
REMARK   66  A    between atoms: _168  and  _169
REMARK   67  A    between atoms: _174  and  _176
REMARK   68  A    between atoms: _176  and  _177
REMARK   69  A    between atoms: _176  and  _179
REMARK   70  A    between atoms: _179  and  _180
REMARK   71  A    between atoms: _186  and  _188
REMARK   72  A    between atoms: _188  and  _189
REMARK   73  A    between atoms: _188  and  _191
REMARK   74  A    between atoms: _191  and  _192
REMARK   75  A    between atoms: _198  and  _200
REMARK   76  A    between atoms: _200  and  _201
REMARK   77  A    between atoms: _200  and  _203
REMARK   78  A    between atoms: _203  and  _204
REMARK   79  A    between atoms: _204  and  _205
REMARK   80  A    between atoms: _208  and  _210
REMARK   81  A    between atoms: _210  and  _211
REMARK   82  A    between atoms: _210  and  _213
REMARK   83  A    between atoms: _213  and  _214
REMARK   84  A    between atoms: _214  and  _215
REMARK   85  A    between atoms: _215  and  _216
REMARK   86  A    between atoms: _225  and  _227
REMARK   87  A    between atoms: _227  and  _228
REMARK   88  A    between atoms: _227  and  _230
REMARK   89  A    between atoms: _230  and  _231
REMARK   90  A    between atoms: _231  and  _232
REMARK   91  A    between atoms: _235  and  _237
REMARK   92  A    between atoms: _237  and  _238
REMARK   93  A    between atoms: _237  and  _240
REMARK   94  A    between atoms: _240  and  _241
REMARK   95  A    between atoms: _246  and  _248
REMARK   96  A    between atoms: _248  and  _249
REMARK   97  A    between atoms: _248  and  _251
REMARK   98  A    between atoms: _251  and  _252
REMARK   99  A    between atoms: _255  and  _257
REMARK  100  A    between atoms: _257  and  _258
REMARK  101  A    between atoms: _257  and  _260
REMARK  102  A    between atoms: _260  and  _261
REMARK  103  A    between atoms: _264  and  _266
REMARK  104  A    between atoms: _266  and  _267
REMARK  105  A    between atoms: _266  and  _269
REMARK  106  A    between atoms: _269  and  _270
REMARK  107  A    between atoms: _275  and  _277
REMARK  108  A    between atoms: _277  and  _278
REMARK  109  A    between atoms: _277  and  _280
REMARK  110  A    between atoms: _280  and  _281
REMARK  111  A    between atoms: _284  and  _286
REMARK  112  A    between atoms: _286  and  _287
REMARK  113  A    between atoms: _286  and  _289
REMARK  114  A    between atoms: _289  and  _290
REMARK  115  A    between atoms: _295  and  _297
REMARK  116  A    between atoms: _297  and  _298
REMARK  117  A    between atoms: _297  and  _300
REMARK  118  A    between atoms: _300  and  _301
REMARK  119  A    between atoms: _306  and  _308
REMARK  120  A    between atoms: _308  and  _309
REMARK  121  A    between atoms: _308  and  _311
REMARK  122  A    between atoms: _311  and  _312
REMARK  123  A    between atoms: _315  and  _317
REMARK  124  A    between atoms: _317  and  _318
REMARK  125  A    between atoms: _317  and  _320
REMARK  126  A    between atoms: _323  and  _325
REMARK  127  A    between atoms: _325  and  _326
REMARK  128  A    between atoms: _325  and  _328
REMARK  129  A    between atoms: _328  and  _329
REMARK  130  A    between atoms: _332  and  _334
REMARK  131  A    between atoms: _334  and  _335
REMARK  132  A    between atoms: _334  and  _337
REMARK  133  A    between atoms: _337  and  _338
REMARK  134  A    between atoms: _338  and  _339
REMARK  135  A    between atoms: _342  and  _344
REMARK  136  A    between atoms: _344  and  _345
REMARK  137  A    between atoms: _348  and  _350
REMARK  138  A    between atoms: _350  and  _351
REMARK  139  A    between atoms: _350  and  _353
REMARK  140  A    between atoms: _353  and  _354
REMARK  141  A    between atoms: _357  and  _359
REMARK  142  A    between atoms: _359  and  _360
REMARK  143  A    between atoms: _359  and  _362
REMARK  144  A    between atoms: _362  and  _363
REMARK  145  A    between atoms: _363  and  _364
REMARK  146  A    between atoms: _367  and  _369
REMARK  147  A    between atoms: _369  and  _370
REMARK  148  A    between atoms: _369  and  _372
REMARK  149  A    between atoms: _372  and  _373
REMARK  150  A    between atoms: _378  and  _380
REMARK  151  A    between atoms: _380  and  _381
REMARK  152  A    between atoms: _383  and  _385
REMARK  153  A    between atoms: _385  and  _386
REMARK  154  A    between atoms: _385  and  _388
REMARK  155  A    between atoms: _391  and  _393
REMARK  156  A    between atoms: _393  and  _394
REMARK  157  A    between atoms: _397  and  _399
REMARK  158  A    between atoms: _399  and  _400
REMARK  159  A    between atoms: _399  and  _402
REMARK  160  A    between atoms: _402  and  _403
REMARK  161  A    between atoms: _408  and  _410
REMARK  162  A    between atoms: _410  and  _411
REMARK  163  A    between atoms: _410  and  _413
REMARK  164  A    between atoms: _413  and  _414
REMARK  165  A    between atoms: _414  and  _415
REMARK  166  A    between atoms: _415  and  _416
REMARK  167  A    between atoms: _416  and  _417
REMARK  168  A    between atoms: _421  and  _423
REMARK  169  A    between atoms: _423  and  _424
REMARK  170  A    between atoms: _423  and  _426
REMARK  171  A    between atoms: _426  and  _427
REMARK  172  A    between atoms: _430  and  _432
REMARK  173  A    between atoms: _432  and  _433
REMARK  174  A    between atoms: _432  and  _435
REMARK  175  A    between atoms: _435  and  _436
REMARK  176  A    between atoms: _441  and  _443
REMARK  177  A    between atoms: _443  and  _444
REMARK  178  A    between atoms: _446  and  _448
REMARK  179  A    between atoms: _448  and  _449
REMARK  180  A    between atoms: _448  and  _451
REMARK  181  A    between atoms: _451  and  _452
REMARK  182  A    between atoms: _452  and  _453
REMARK  183  A    between atoms: _453  and  _454
REMARK  184  A    between atoms: _454  and  _455
REMARK  185  A    between atoms: _459  and  _461
REMARK  186  A    between atoms: _461  and  _462
REMARK  187  A    between atoms: _461  and  _464
REMARK  188  A    between atoms: _464  and  _465
REMARK  189  A    between atoms: _465  and  _466
REMARK  190  A    between atoms: _466  and  _467
REMARK  191  A    between atoms: _476  and  _478
REMARK  192  A    between atoms: _478  and  _479
REMARK  193  A    between atoms: _478  and  _481
REMARK  194  A    between atoms: _481  and  _482
REMARK  195  A    between atoms: _487  and  _488
REMARK  196  A    between atoms: _490  and  _492
REMARK  197  A    between atoms: _492  and  _493
REMARK  198  A    between atoms: _492  and  _495
REMARK  199  A    between atoms: _495  and  _496
REMARK  200  A    between atoms: _496  and  _497
REMARK  201  A    between atoms: _497  and  _498
REMARK  202  A    between atoms: _498  and  _499
REMARK  203  A    between atoms: _503  and  _505
REMARK  204  A    between atoms: _505  and  _506
REMARK  205  A    between atoms: _505  and  _508
REMARK  206  A    between atoms: _508  and  _509
REMARK  207  A    between atoms: _511  and  _513
REMARK  208  A    between atoms: _513  and  _514
REMARK  209  A    between atoms: _513  and  _516
REMARK  210  A    between atoms: _516  and  _517
REMARK  211  A    between atoms: _520  and  _522
REMARK  212  A    between atoms: _522  and  _523
REMARK  213  A    between atoms: _522  and  _525
REMARK  214  A    between atoms: _525  and  _526
REMARK  215  A    between atoms: _526  and  _527
REMARK  216  A    between atoms: _530  and  _532
REMARK  217  A    between atoms: _532  and  _533
REMARK  218  A    between atoms: _536  and  _538
REMARK  219  A    between atoms: _538  and  _539
REMARK  220  A    between atoms: _538  and  _541
REMARK  221  A    between atoms: _541  and  _542
REMARK  222  A    between atoms: _544  and  _546
REMARK  223  A    between atoms: _546  and  _547
REMARK  224  A    between atoms: _549  and  _551
REMARK  225  A    between atoms: _551  and  _552
REMARK  226  A    between atoms: _551  and  _554
REMARK  227  A    between atoms: _554  and  _555
REMARK  228  A    between atoms: _558  and  _560
REMARK  229  A    between atoms: _560  and  _561
REMARK  230  A    between atoms: _563  and  _565
REMARK  231  A    between atoms: _565  and  _566
REMARK  232  A    between atoms: _565  and  _568
REMARK  233  A    between atoms: _568  and  _569
REMARK  234  A    between atoms: _574  and  _576
REMARK  235  A    between atoms: _576  and  _577
REMARK  236  A    between atoms: _576  and  _579
REMARK  237  A    between atoms: _579  and  _580
REMARK  238  A    between atoms: _580  and  _581
REMARK  239  A    between atoms: _588  and  _589
REMARK  240  A    between atoms: _589  and  _605
REMARK  241  A    between atoms: _590  and  _592
REMARK  242  A    between atoms: _592  and  _593
REMARK  243  A    between atoms: _593  and  _594
REMARK  244  A    between atoms: _598  and  _600
REMARK  245  A    between atoms: _600  and  _601
REMARK  246  A    between atoms: _600  and  _608
REMARK  247  A    between atoms: _601  and  _602
REMARK  248  A    between atoms: _602  and  _603
REMARK  249  A    between atoms: _603  and  _604
REMARK  250  A    between atoms: _604  and  _605
REMARK  251  A    between atoms: _610  and  _612
REMARK  252  A    between atoms: _612  and  _613
REMARK  253  A    between atoms: _612  and  _615
REMARK  254  A    between atoms: _615  and  _616
REMARK  255  A    between atoms: _619  and  _621
REMARK  256  A    between atoms: _621  and  _622
REMARK  257  A    between atoms: _624  and  _626
REMARK  258  A    between atoms: _626  and  _627
REMARK  259  A    between atoms: _630  and  _632
REMARK  260  A    between atoms: _632  and  _633
REMARK  261  A    between atoms: _632  and  _635
REMARK  262  A    between atoms: _635  and  _636
REMARK  263  A    between atoms: _641  and  _642
REMARK                            x       y       z     vdW  Elec       q    Type
REMARK                         _______ _______ _______ _____ _____    ______ ____
ROOT
ATOM      1  CB  PHE A   1      29.117  11.461  32.788  0.00  0.00    +0.051 C 
ENDROOT
BRANCH   1   2
ATOM      2  CG  PHE A   1      29.795  11.679  31.461  0.00  0.00    -0.020 A 
ATOM      3  CD2 PHE A   1      31.178  11.813  31.395  0.00  0.00    -0.004 A 
ATOM      4  CE2 PHE A   1      31.818  12.015  30.172  0.00  0.00    -0.000 A 
ATOM      5  CZ  PHE A   1      31.072  12.090  29.005  0.00  0.00    -0.000 A 
ATOM      6  CE1 PHE A   1      29.685  11.959  29.056  0.00  0.00    -0.000 A 
ATOM      7  CD1 PHE A   1      29.056  11.761  30.278  0.00  0.00    -0.004 A 
ENDBRANCH   1   2
BRANCH   1   8
ATOM      8  CA  PHE A   1      27.640  11.073  32.674  0.00  0.00    +0.137 C 
BRANCH   8   9
ATOM      9  N   PHE A   1      26.804  12.258  32.489  0.00  0.00    -0.239 NA
ATOM     10  H   PHE A   1      27.247  13.198  32.529  0.00  0.00    +0.142 HD
ENDBRANCH   8   9
BRANCH   8  11
ATOM     11  C   PHE A   1      27.206  10.231  33.870  0.00  0.00    +0.224 C 
ATOM     12  O   PHE A   1      27.142   9.012  33.769  0.00  0.00    -0.287 OA
ENDBRANCH   8  11
ENDBRANCH   1   8
TORSDOF 4
REMARK  Name = ../refined-set-2016/2qrg/2qrg_pocket.pdb
REMARK  263 active torsions:
REMARK  status: ('A' for Active; 'I' for Inactive)
REMARK    1  A    between atoms: _1  and  _3
REMARK    2  A    between atoms: _3  and  _4
REMARK    3  A    between atoms: _3  and  _6
REMARK    4  A    between atoms: _6  and  _7
REMARK    5  A    between atoms: _12  and  _13
REMARK    6  A    between atoms: _15  and  _17
REMARK    7  A    between atoms: _17  and  _18
REMARK    8  A    between atoms: _17  and  _20
REMARK    9  A    between atoms: _20  and  _21
REMARK   10  A    between atoms: _24  and  _26
REMARK   11  A    between atoms: _26  and  _27
REMARK   12  A    between atoms: _26  and  _29
REMARK   13  A    between atoms: _29  and  _30
REMARK   14  A    between atoms: _30  and  _31
REMARK   15  A    between atoms: _34  and  _36
REMARK   16  A    between atoms: _36  and  _37
REMARK   17  A    between atoms: _36  and  _39
REMARK   18  A    between atoms: _39  and  _40
REMARK   19  A    between atoms: _45  and  _47
REMARK   20  A    between atoms: _47  and  _48
REMARK   21  A    between atoms: _50  and  _52
REMARK   22  A    between atoms: _52  and  _53
REMARK   23  A    between atoms: _55  and  _57
REMARK   24  A    between atoms: _57  and  _58
REMARK   25  A    between atoms: _57  and  _60
REMARK   26  A    between atoms: _60  and  _61
REMARK   27  A    between atoms: _64  and  _66
REMARK   28  A    between atoms: _66  and  _67
REMARK   29  A    between atoms: _69  and  _71
REMARK   30  A    between atoms: _71  and  _72
REMARK   31  A    between atoms: _71  and  _74
REMARK   32  A    between atoms: _74  and  _75
REMARK   33  A    between atoms: _75  and  _76
REMARK   34  A    between atoms: _76  and  _77
REMARK   35  A    between atoms: _86  and  _88
REMARK   36  A    between atoms: _88  and  _89
REMARK   37  A    between atoms: _88  and  _91
REMARK   38  A    between atoms: _91  and  _92
REMARK   39  A    between atoms: _95  and  _97
REMARK   40  A    between atoms: _97  and  _98
REMARK   41  A    between atoms: _101  and  _103
REMARK   42  A    between atoms: _103  and  _104
REMARK   43  A    between atoms: _103  and  _106
REMARK   44  A    between atoms: _106  and  _107
REMARK   45  A    between atoms: _113  and  _115
REMARK   46  A    between atoms: _115  and  _116
REMARK   47  A    between atoms: _115  and  _118
REMARK   48  A    between atoms: _118  and  _119
REMARK   49  A    between atoms: _122  and  _124
REMARK   50  A    between atoms: _124  and  _125
REMARK   51  A    between atoms: _124  and  _127
REMARK   52  A    between atoms: _127  and  _128
REMARK   53  A    between atoms: _133  and  _134
REMARK   54  A    between atoms: _137  and  _138
REMARK   55  A    between atoms: _143  and  _145
REMARK   56  A    between atoms: _145  and  _146
REMARK   57  A    between atoms: _145  and  _148
REMARK   58  A    between atoms: _148  and  _149
REMARK   59  A    between atoms: _154  and  _156
REMARK   60  A    between atoms: _156  and  _157
REMARK   61  A    between atoms: _156  and  _159
REMARK   62  A    between atoms: _159  and  _160
REMARK   63  A    between atoms: _163  and  _165
REMARK   64  A    between atoms: _165  and  _166
REMARK   65  A    between atoms: _165  and  _168
REMARK   66  A    between atoms: _168  and  _169
REMARK   67  A    between atoms: _174  and  _176
REMARK   68  A    between atoms: _176  and  _177
REMARK   69  A    between atoms: _176  and  _179
REMARK   70  A    between atoms: _179  and  _180
REMARK   71  A    between atoms: _186  and  _188
REMARK   72  A    between atoms: _188  and  _189
REMARK   73  A    between atoms: _188  and  _191
REMARK   74  A    between atoms: _191  and  _192
REMARK   75  A    between atoms: _198  and  _200
REMARK   76  A    between atoms: _200  and  _201
REMARK   77  A    between atoms: _200  and  _203
REMARK   78  A    between atoms: _203  and  _204
REMARK   79  A    between atoms: _204  and  _205
REMARK   80  A    between atoms: _208  and  _210
REMARK   81  A    between atoms: _210  and  _211
REMARK   82  A    between atoms: _210  and  _213
REMARK   83  A    between atoms: _213  and  _214
REMARK   84  A    between atoms: _214  and  _215
REMARK   85  A    between atoms: _215  and  _216
REMARK   86  A    between atoms: _225  and  _227
REMARK   87  A    between atoms: _227  and  _228
REMARK   88  A    between atoms: _227  and  _230
REMARK   89  A    between atoms: _230  and  _231
REMARK   90  A    between atoms: _231  and  _232
REMARK   91  A    between atoms: _235  and  _237
REMARK   92  A    between atoms: _237  and  _238
REMARK   93  A    between atoms: _237  and  _240
REMARK   94  A    between atoms: _240  and  _241
REMARK   95  A    between atoms: _246  and  _248
REMARK   96  A    between atoms: _248  and  _249
REMARK   97  A    between atoms: _248  and  _251
REMARK   98  A    between atoms: _251  and  _252
REMARK   99  A    between atoms: _255  and  _257
REMARK  100  A    between atoms: _257  and  _258
REMARK  101  A    between atoms: _257  and  _260
REMARK  102  A    between atoms: _260  and  _261
REMARK  103  A    between atoms: _264  and  _266
REMARK  104  A    between atoms: _266  and  _267
REMARK  105  A    between atoms: _266  and  _269
REMARK  106  A    between atoms: _269  and  _270
REMARK  107  A    between atoms: _275  and  _277
REMARK  108  A    between atoms: _277  and  _278
REMARK  109  A    between atoms: _277  and  _280
REMARK  110  A    between atoms: _280  and  _281
REMARK  111  A    between atoms: _284  and  _286
REMARK  112  A    between atoms: _286  and  _287
REMARK  113  A    between atoms: _286  and  _289
REMARK  114  A    between atoms: _289  and  _290
REMARK  115  A    between atoms: _295  and  _297
REMARK  116  A    between atoms: _297  and  _298
REMARK  117  A    between atoms: _297  and  _300
REMARK  118  A    between atoms: _300  and  _301
REMARK  119  A    between atoms: _306  and  _308
REMARK  120  A    between atoms: _308  and  _309
REMARK  121  A    between atoms: _308  and  _311
REMARK  122  A    between atoms: _311  and  _312
REMARK  123  A    between atoms: _315  and  _317
REMARK  124  A    between atoms: _317  and  _318
REMARK  125  A    between atoms: _317  and  _320
REMARK  126  A    between atoms: _323  and  _325
REMARK  127  A    between atoms: _325  and  _326
REMARK  128  A    between atoms: _325  and  _328
REMARK  129  A    between atoms: _328  and  _329
REMARK  130  A    between atoms: _332  and  _334
REMARK  131  A    between atoms: _334  and  _335
REMARK  132  A    between atoms: _334  and  _337
REMARK  133  A    between atoms: _337  and  _338
REMARK  134  A    between atoms: _338  and  _339
REMARK  135  A    between atoms: _342  and  _344
REMARK  136  A    between atoms: _344  and  _345
REMARK  137  A    between atoms: _348  and  _350
REMARK  138  A    between atoms: _350  and  _351
REMARK  139  A    between atoms: _350  and  _353
REMARK  140  A    between atoms: _353  and  _354
REMARK  141  A    between atoms: _357  and  _359
REMARK  142  A    between atoms: _359  and  _360
REMARK  143  A    between atoms: _359  and  _362
REMARK  144  A    between atoms: _362  and  _363
REMARK  145  A    between atoms: _363  and  _364
REMARK  146  A    between atoms: _367  and  _369
REMARK  147  A    between atoms: _369  and  _370
REMARK  148  A    between atoms: _369  and  _372
REMARK  149  A    between atoms: _372  and  _373
REMARK  150  A    between atoms: _378  and  _380
REMARK  151  A    between atoms: _380  and  _381
REMARK  152  A    between atoms: _383  and  _385
REMARK  153  A    between atoms: _385  and  _386
REMARK  154  A    between atoms: _385  and  _388
REMARK  155  A    between atoms: _391  and  _393
REMARK  156  A    between atoms: _393  and  _394
REMARK  157  A    between atoms: _397  and  _399
REMARK  158  A    between atoms: _399  and  _400
REMARK  159  A    between atoms: _399  and  _402
REMARK  160  A    between atoms: _402  and  _403
REMARK  161  A    between atoms: _408  and  _410
REMARK  162  A    between atoms: _410  and  _411
REMARK  163  A    between atoms: _410  and  _413
REMARK  164  A    between atoms: _413  and  _414
REMARK  165  A    between atoms: _414  and  _415
REMARK  166  A    between atoms: _415  and  _416
REMARK  167  A    between atoms: _416  and  _417
REMARK  168  A    between atoms: _421  and  _423
REMARK  169  A    between atoms: _423  and  _424
REMARK  170  A    between atoms: _423  and  _426
REMARK  171  A    between atoms: _426  and  _427
REMARK  172  A    between atoms: _430  and  _432
REMARK  173  A    between atoms: _432  and  _433
REMARK  174  A    between atoms: _432  and  _435
REMARK  175  A    between atoms: _435  and  _436
REMARK  176  A    between atoms: _441  and  _443
REMARK  177  A    between atoms: _443  and  _444
REMARK  178  A    between atoms: _446  and  _448
REMARK  179  A    between atoms: _448  and  _449
REMARK  180  A    between atoms: _448  and  _451
REMARK  181  A    between atoms: _451  and  _452
REMARK  182  A    between atoms: _452  and  _453
REMARK  183  A    between atoms: _453  and  _454
REMARK  184  A    between atoms: _454  and  _455
REMARK  185  A    between atoms: _459  and  _461
REMARK  186  A    between atoms: _461  and  _462
REMARK  187  A    between atoms: _461  and  _464
REMARK  188  A    between atoms: _464  and  _465
REMARK  189  A    between atoms: _465  and  _466
REMARK  190  A    between atoms: _466  and  _467
REMARK  191  A    between atoms: _476  and  _478
REMARK  192  A    between atoms: _478  and  _479
REMARK  193  A    between atoms: _478  and  _481
REMARK  194  A    between atoms: _481  and  _482
REMARK  195  A    between atoms: _487  and  _488
REMARK  196  A    between atoms: _490  and  _492
REMARK  197  A    between atoms: _492  and  _493
REMARK  198  A    between atoms: _492  and  _495
REMARK  199  A    between atoms: _495  and  _496
REMARK  200  A    between atoms: _496  and  _497
REMARK  201  A    between atoms: _497  and  _498
REMARK  202  A    between atoms: _498  and  _499
REMARK  203  A    between atoms: _503  and  _505
REMARK  204  A    between atoms: _505  and  _506
REMARK  205  A    between atoms: _505  and  _508
REMARK  206  A    between atoms: _508  and  _509
REMARK  207  A    between atoms: _511  and  _513
REMARK  208  A    between atoms: _513  and  _514
REMARK  209  A    between atoms: _513  and  _516
REMARK  210  A    between atoms: _516  and  _517
REMARK  211  A    between atoms: _520  and  _522
REMARK  212  A    between atoms: _522  and  _523
REMARK  213  A    between atoms: _522  and  _525
REMARK  214  A    between atoms: _525  and  _526
REMARK  215  A    between atoms: _526  and  _527
REMARK  216  A    between atoms: _530  and  _532
REMARK  217  A    between atoms: _532  and  _533
REMARK  218  A    between atoms: _536  and  _538
REMARK  219  A    between atoms: _538  and  _539
REMARK  220  A    between atoms: _538  and  _541
REMARK  221  A    between atoms: _541  and  _542
REMARK  222  A    between atoms: _544  and  _546
REMARK  223  A    between atoms: _546  and  _547
REMARK  224  A    between atoms: _549  and  _551
REMARK  225  A    between atoms: _551  and  _552
REMARK  226  A    between atoms: _551  and  _554
REMARK  227  A    between atoms: _554  and  _555
REMARK  228  A    between atoms: _558  and  _560
REMARK  229  A    between atoms: _560  and  _561
REMARK  230  A    between atoms: _563  and  _565
REMARK  231  A    between atoms: _565  and  _566
REMARK  232  A    between atoms: _565  and  _568
REMARK  233  A    between atoms: _568  and  _569
REMARK  234  A    between atoms: _574  and  _576
REMARK  235  A    between atoms: _576  and  _577
REMARK  236  A    between atoms: _576  and  _579
REMARK  237  A    between atoms: _579  and  _580
REMARK  238  A    between atoms: _580  and  _581
REMARK  239  A    between atoms: _588  and  _589
REMARK  240  A    between atoms: _589  and  _605
REMARK  241  A    between atoms: _590  and  _592
REMARK  242  A    between atoms: _592  and  _593
REMARK  243  A    between atoms: _593  and  _594
REMARK  244  A    between atoms: _598  and  _600
REMARK  245  A    between atoms: _600  and  _601
REMARK  246  A    between atoms: _600  and  _608
REMARK  247  A    between atoms: _601  and  _602
REMARK  248  A    between atoms: _602  and  _603
REMARK  249  A    between atoms: _603  and  _604
REMARK  250  A    between atoms: _604  and  _605
REMARK  251  A    between atoms: _610  and  _612
REMARK  252  A    between atoms: _612  and  _613
REMARK  253  A    between atoms: _612  and  _615
REMARK  254  A    between atoms: _615  and  _616
REMARK  255  A    between atoms: _619  and  _621
REMARK  256  A    between atoms: _621  and  _622
REMARK  257  A    between atoms: _624  and  _626
REMARK  258  A    between atoms: _626  and  _627
REMARK  259  A    between atoms: _630  and  _632
REMARK  260  A    between atoms: _632  and  _633
REMARK  261  A    between atoms: _632  and  _635
REMARK  262  A    between atoms: _635  and  _636
REMARK  263  A    between atoms: _641  and  _642
REMARK                            x       y       z     vdW  Elec       q    Type
REMARK                         _______ _______ _______ _____ _____    ______ ____
ROOT
ATOM      1  CA  ASP A   5      33.815  29.353  31.984  0.00  0.00    +0.160 C 
ENDROOT
BRANCH   1   4
ATOM      2  C   ASN A   4      34.378  29.960  34.275  0.00  0.00    +0.241 C 
ATOM      3  O   ASN A   4      34.527  28.786  34.625  0.00  0.00    -0.273 OA
ATOM      4  N   ASP A   5      33.986  30.317  33.058  0.00  0.00    -0.297 N 
ATOM      5  H   ASP A   5      33.795  31.321  32.867  0.00  0.00    +0.150 HD
BRANCH   2   6
ATOM      6  CA  ASN A   4      34.636  31.104  35.244  0.00  0.00    +0.158 C 
BRANCH   6   8
ATOM      7  C   PRO A   3      32.793  31.531  36.787  0.00  0.00    +0.241 C 
ATOM      8  N   ASN A   4      33.957  30.942  36.530  0.00  0.00    -0.297 N 
ATOM      9  H   ASN A   4      34.397  30.350  37.263  0.00  0.00    +0.150 HD
ATOM     10  O   PRO A   3      32.182  32.200  35.949  0.00  0.00    -0.273 OA
BRANCH   7  16
ATOM     11  C   TYR A   2      33.683  29.966  39.624  0.00  0.00    +0.244 C 
ATOM     12  N   PRO A   3      33.170  31.162  39.273  0.00  0.00    -0.272 N 
ATOM     13  CD  PRO A   3      33.470  32.451  39.930  0.00  0.00    +0.094 C 
ATOM     14  CG  PRO A   3      32.466  33.412  39.317  0.00  0.00    +0.024 C 
ATOM     15  CB  PRO A   3      31.424  32.574  38.626  0.00  0.00    +0.031 C 
ATOM     16  CA  PRO A   3      32.194  31.325  38.190  0.00  0.00    +0.152 C 
ATOM     17  O   TYR A   2      33.485  28.935  38.979  0.00  0.00    -0.273 OA
BRANCH  11  18
ATOM     18  CA  TYR A   2      34.512  29.913  40.912  0.00  0.00    +0.153 C 
BRANCH  18  21
ATOM     19  C   LEU A   1      32.694  29.107  42.312  0.00  0.00    +0.238 C 
ATOM     20  O   LEU A   1      32.083  30.176  42.203  0.00  0.00    -0.274 OA
ATOM     21  N   TYR A   2      33.919  28.928  41.823  0.00  0.00    -0.297 N 
ATOM     22  H   TYR A   2      34.461  28.081  42.089  0.00  0.00    +0.150 HD
BRANCH  19  23
ATOM     23  CA  LEU A   1      32.054  27.914  43.028  0.00  0.00    +0.145 C 
BRANCH  23  24
ATOM     24  N   LEU A   1      31.560  28.319  44.341  0.00  0.00    -0.238 NA
ATOM     25  H   LEU A   1      30.532  28.393  44.482  0.00  0.00    +0.142 HD
ENDBRANCH  23  24
BRANCH  23  26
ATOM     26  CB  LEU A   1      30.888  27.365  42.177  0.00  0.00    +0.026 C 
BRANCH  26  27
ATOM     27  CG  LEU A   1      31.083  27.097  40.675  0.00  0.00    +0.002 C 
ATOM     28  CD2 LEU A   1      31.911  25.838  40.433  0.00  0.00    +0.000 C 
ATOM     29  CD1 LEU A   1      29.730  26.967  39.972  0.00  0.00    +0.000 C 
ENDBRANCH  26  27
ENDBRANCH  23  26
ENDBRANCH  19  23
ENDBRANCH  18  21
BRANCH  18  30
ATOM     30  CB  TYR A   2      35.974  29.581  40.621  0.00  0.00    +0.055 C 
BRANCH  30  31
ATOM     31  CG  TYR A   2      36.904  30.126  41.676  0.00  0.00    -0.020 A 
ATOM     32  CD2 TYR A   2      37.105  29.445  42.878  0.00  0.00    -0.001 A 
ATOM     33  CE2 TYR A   2      37.954  29.956  43.859  0.00  0.00    +0.036 A 
ATOM     34  CZ  TYR A   2      38.600  31.159  43.636  0.00  0.00    +0.134 A 
ATOM     35  CE1 TYR A   2      38.409  31.857  42.454  0.00  0.00    +0.036 A 
ATOM     36  CD1 TYR A   2      37.561  31.339  41.485  0.00  0.00    -0.001 A 
BRANCH  34  37
ATOM     37  OH  TYR A   2      39.438  31.679  44.596  0.00  0.00    -0.506 OA
ATOM     38  HH  TYR A   2      39.099  32.564  44.884  0.00  0.00    +0.292 HD
ENDBRANCH  34  37
ENDBRANCH  30  31
ENDBRANCH  18  30
ENDBRANCH  11  18
ENDBRANCH   7  16
ENDBRANCH   6   8
BRANCH   6  39
ATOM     39  CB  ASN A   4      36.142  31.277  35.450  0.00  0.00    +0.114 C 
BRANCH  39  40
ATOM     40  CG  ASN A   4      36.476  32.468  36.323  0.00  0.00    +0.222 C 
ATOM     41  ND2 ASN A   4      37.313  32.246  37.330  0.00  0.00    -0.329 N 
ATOM     42 HD21 ASN A   4      37.574  33.023  37.970  0.00  0.00    +0.145 HD
ATOM     43 HD22 ASN A   4      37.707  31.295  37.478  0.00  0.00    +0.145 HD
ATOM     44  OD1 ASN A   4      35.980  33.575  36.102  0.00  0.00    -0.275 OA
ENDBRANCH  39  40
ENDBRANCH   6  39
ENDBRANCH   2   6
ENDBRANCH   1   4
BRANCH   1  45
ATOM     45  C   ASP A   5      34.989  29.521  31.026  0.00  0.00    +0.241 C 
ATOM     46  N   ASN A   6      35.753  28.446  30.829  0.00  0.00    -0.297 N 
ATOM     47  H   ASN A   6      35.524  27.565  31.332  0.00  0.00    +0.150 HD
ATOM     48  O   ASP A   5      35.210  30.609  30.491  0.00  0.00    -0.273 OA
BRANCH  46  49
ATOM     49  CA  ASN A   6      36.907  28.469  29.923  0.00  0.00    +0.158 C 
BRANCH  49  50
ATOM     50  C   ASN A   6      37.910  29.573  30.249  0.00  0.00    +0.241 C 
ATOM     51  N   PHE A   7      38.209  29.732  31.534  0.00  0.00    -0.297 N 
ATOM     52  H   PHE A   7      37.724  29.143  32.241  0.00  0.00    +0.150 HD
ATOM     53  O   ASN A   6      38.390  30.270  29.356  0.00  0.00    -0.273 OA
BRANCH  51  54
ATOM     54  CA  PHE A   7      39.196  30.706  31.983  0.00  0.00    +0.153 C 
BRANCH  54  55
ATOM     55  C   PHE A   7      39.864  30.209  33.258  0.00  0.00    +0.241 C 
ATOM     56  O   PHE A   7      39.194  29.718  34.170  0.00  0.00    -0.273 OA
ATOM     57  N   PHE A   8      41.190  30.319  33.301  0.00  0.00    -0.297 N 
ATOM     58  H   PHE A   8      41.692  30.703  32.475  0.00  0.00    +0.150 HD
BRANCH  57  59
ATOM     59  CA  PHE A   8      41.958  29.917  34.470  0.00  0.00    +0.153 C 
BRANCH  59  60
ATOM     60  C   PHE A   8      42.254  31.126  35.349  0.00  0.00    +0.241 C 
ATOM     61  N   GLU A   9      41.773  31.068  36.587  0.00  0.00    -0.298 N 
ATOM     62  H   GLU A   9      41.146  30.279  36.843  0.00  0.00    +0.150 HD
ATOM     63  O   PHE A   8      42.889  32.087  34.907  0.00  0.00    -0.273 OA
BRANCH  61  64
ATOM     64  CA  GLU A   9      42.090  32.066  37.600  0.00  0.00    +0.137 C 
BRANCH  64  65
ATOM     65  C   GLU A   9      42.981  31.406  38.650  0.00  0.00    +0.227 C 
ATOM     66  O   GLU A   9      42.534  30.525  39.394  0.00  0.00    -0.286 OA
ENDBRANCH  64  65
BRANCH  64  67
ATOM     67  CB  GLU A   9      40.805  32.620  38.225  0.00  0.00    +0.039 C 
BRANCH  67  68
ATOM     68  CG  GLU A   9      40.985  33.941  38.958  0.00  0.00    +0.116 C 
BRANCH  68  69
ATOM     69  CD  GLU A   9      39.675  34.527  39.471  0.00  0.00    +0.365 C 
ATOM     70  OE2 GLU A   9      39.739  35.463  40.297  0.00  0.00    -0.246 OA
ATOM     71  OE1 GLU A   9      38.585  34.061  39.057  0.00  0.00    -0.246 OA
ENDBRANCH  68  69
ENDBRANCH  67  68
ENDBRANCH  64  67
ENDBRANCH  61  64
ENDBRANCH  59  60
BRANCH  59  72
ATOM     72  CB  PHE A   8      43.261  29.220  34.051  0.00  0.00    +0.055 C 
BRANCH  72  73
ATOM     73  CG  PHE A   8      44.224  28.983  35.188  0.00  0.00    -0.020 A 
ATOM     74  CD2 PHE A   8      43.864  28.186  36.271  0.00  0.00    -0.004 A 
ATOM     75  CE2 PHE A   8      44.750  27.965  37.325  0.00  0.00    -0.000 A 
ATOM     76  CZ  PHE A   8      46.016  28.544  37.296  0.00  0.00    -0.000 A 
ATOM     77  CE1 PHE A   8      46.387  29.345  36.229  0.00  0.00    -0.000 A 
ATOM     78  CD1 PHE A   8      45.491  29.564  35.177  0.00  0.00    -0.004 A 
ENDBRANCH  72  73
ENDBRANCH  59  72
ENDBRANCH  57  59
ENDBRANCH  54  55
BRANCH  54  79
ATOM     79  CB  PHE A   7      38.543  32.077  32.196  0.00  0.00    +0.055 C 
BRANCH  79  80
ATOM     80  CG  PHE A   7      39.517  33.172  32.546  0.00  0.00    -0.020 A 
ATOM     81  CD2 PHE A   7      39.626  33.629  33.854  0.00  0.00    -0.004 A 
ATOM     82  CE2 PHE A   7      40.525  34.642  34.186  0.00  0.00    -0.000 A 
ATOM     83  CZ  PHE A   7      41.324  35.209  33.202  0.00  0.00    -0.000 A 
ATOM     84  CE1 PHE A   7      41.220  34.766  31.889  0.00  0.00    -0.000 A 
ATOM     85  CD1 PHE A   7      40.316  33.752  31.567  0.00  0.00    -0.004 A 
ENDBRANCH  79  80
ENDBRANCH  54  79
ENDBRANCH  51  54
ENDBRANCH  49  50
BRANCH  49  86
ATOM     86  CB  ASN A   6      36.450  28.594  28.467  0.00  0.00    +0.114 C 
BRANCH  86  87
ATOM     87  CG  ASN A   6      36.119  27.265  27.856  0.00  0.00    +0.222 C 
ATOM     88  ND2 ASN A   6      34.832  26.949  27.785  0.00  0.00    -0.329 N 
ATOM     89 HD21 ASN A   6      34.113  27.613  28.137  0.00  0.00    +0.145 HD
ATOM     90 HD22 ASN A   6      34.542  26.037  27.377  0.00  0.00    +0.145 HD
ATOM     91  OD1 ASN A   6      37.011  26.521  27.456  0.00  0.00    -0.275 OA
ENDBRANCH  86  87
ENDBRANCH  49  86
ENDBRANCH  46  49
ENDBRANCH   1  45
BRANCH   1  92
ATOM     92  CB  ASP A   5      32.478  29.592  31.273  0.00  0.00    +0.143 C 
BRANCH  92  93
ATOM     93  CG  ASP A   5      32.107  28.467  30.321  0.00  0.00    +0.367 C 
ATOM     94  OD2 ASP A   5      31.195  27.683  30.657  0.00  0.00    -0.246 OA
ATOM     95  OD1 ASP A   5      32.724  28.364  29.242  0.00  0.00    -0.246 OA
ENDBRANCH  92  93
ENDBRANCH   1  92
TORSDOF 35
REMARK  Name = ../refined-set-2016/2qrg/2qrg_pocket.pdb
REMARK  263 active torsions:
REMARK  status: ('A' for Active; 'I' for Inactive)
REMARK    1  A    between atoms: _1  and  _3
REMARK    2  A    between atoms: _3  and  _4
REMARK    3  A    between atoms: _3  and  _6
REMARK    4  A    between atoms: _6  and  _7
REMARK    5  A    between atoms: _12  and  _13
REMARK    6  A    between atoms: _15  and  _17
REMARK    7  A    between atoms: _17  and  _18
REMARK    8  A    between atoms: _17  and  _20
REMARK    9  A    between atoms: _20  and  _21
REMARK   10  A    between atoms: _24  and  _26
REMARK   11  A    between atoms: _26  and  _27
REMARK   12  A    between atoms: _26  and  _29
REMARK   13  A    between atoms: _29  and  _30
REMARK   14  A    between atoms: _30  and  _31
REMARK   15  A    between atoms: _34  and  _36
REMARK   16  A    between atoms: _36  and  _37
REMARK   17  A    between atoms: _36  and  _39
REMARK   18  A    between atoms: _39  and  _40
REMARK   19  A    between atoms: _45  and  _47
REMARK   20  A    between atoms: _47  and  _48
REMARK   21  A    between atoms: _50  and  _52
REMARK   22  A    between atoms: _52  and  _53
REMARK   23  A    between atoms: _55  and  _57
REMARK   24  A    between atoms: _57  and  _58
REMARK   25  A    between atoms: _57  and  _60
REMARK   26  A    between atoms: _60  and  _61
REMARK   27  A    between atoms: _64  and  _66
REMARK   28  A    between atoms: _66  and  _67
REMARK   29  A    between atoms: _69  and  _71
REMARK   30  A    between atoms: _71  and  _72
REMARK   31  A    between atoms: _71  and  _74
REMARK   32  A    between atoms: _74  and  _75
REMARK   33  A    between atoms: _75  and  _76
REMARK   34  A    between atoms: _76  and  _77
REMARK   35  A    between atoms: _86  and  _88
REMARK   36  A    between atoms: _88  and  _89
REMARK   37  A    between atoms: _88  and  _91
REMARK   38  A    between atoms: _91  and  _92
REMARK   39  A    between atoms: _95  and  _97
REMARK   40  A    between atoms: _97  and  _98
REMARK   41  A    between atoms: _101  and  _103
REMARK   42  A    between atoms: _103  and  _104
REMARK   43  A    between atoms: _103  and  _106
REMARK   44  A    between atoms: _106  and  _107
REMARK   45  A    between atoms: _113  and  _115
REMARK   46  A    between atoms: _115  and  _116
REMARK   47  A    between atoms: _115  and  _118
REMARK   48  A    between atoms: _118  and  _119
REMARK   49  A    between atoms: _122  and  _124
REMARK   50  A    between atoms: _124  and  _125
REMARK   51  A    between atoms: _124  and  _127
REMARK   52  A    between atoms: _127  and  _128
REMARK   53  A    between atoms: _133  and  _134
REMARK   54  A    between atoms: _137  and  _138
REMARK   55  A    between atoms: _143  and  _145
REMARK   56  A    between atoms: _145  and  _146
REMARK   57  A    between atoms: _145  and  _148
REMARK   58  A    between atoms: _148  and  _149
REMARK   59  A    between atoms: _154  and  _156
REMARK   60  A    between atoms: _156  and  _157
REMARK   61  A    between atoms: _156  and  _159
REMARK   62  A    between atoms: _159  and  _160
REMARK   63  A    between atoms: _163  and  _165
REMARK   64  A    between atoms: _165  and  _166
REMARK   65  A    between atoms: _165  and  _168
REMARK   66  A    between atoms: _168  and  _169
REMARK   67  A    between atoms: _174  and  _176
REMARK   68  A    between atoms: _176  and  _177
REMARK   69  A    between atoms: _176  and  _179
REMARK   70  A    between atoms: _179  and  _180
REMARK   71  A    between atoms: _186  and  _188
REMARK   72  A    between atoms: _188  and  _189
REMARK   73  A    between atoms: _188  and  _191
REMARK   74  A    between atoms: _191  and  _192
REMARK   75  A    between atoms: _198  and  _200
REMARK   76  A    between atoms: _200  and  _201
REMARK   77  A    between atoms: _200  and  _203
REMARK   78  A    between atoms: _203  and  _204
REMARK   79  A    between atoms: _204  and  _205
REMARK   80  A    between atoms: _208  and  _210
REMARK   81  A    between atoms: _210  and  _211
REMARK   82  A    between atoms: _210  and  _213
REMARK   83  A    between atoms: _213  and  _214
REMARK   84  A    between atoms: _214  and  _215
REMARK   85  A    between atoms: _215  and  _216
REMARK   86  A    between atoms: _225  and  _227
REMARK   87  A    between atoms: _227  and  _228
REMARK   88  A    between atoms: _227  and  _230
REMARK   89  A    between atoms: _230  and  _231
REMARK   90  A    between atoms: _231  and  _232
REMARK   91  A    between atoms: _235  and  _237
REMARK   92  A    between atoms: _237  and  _238
REMARK   93  A    between atoms: _237  and  _240
REMARK   94  A    between atoms: _240  and  _241
REMARK   95  A    between atoms: _246  and  _248
REMARK   96  A    between atoms: _248  and  _249
REMARK   97  A    between atoms: _248  and  _251
REMARK   98  A    between atoms: _251  and  _252
REMARK   99  A    between atoms: _255  and  _257
REMARK  100  A    between atoms: _257  and  _258
REMARK  101  A    between atoms: _257  and  _260
REMARK  102  A    between atoms: _260  and  _261
REMARK  103  A    between atoms: _264  and  _266
REMARK  104  A    between atoms: _266  and  _267
REMARK  105  A    between atoms: _266  and  _269
REMARK  106  A    between atoms: _269  and  _270
REMARK  107  A    between atoms: _275  and  _277
REMARK  108  A    between atoms: _277  and  _278
REMARK  109  A    between atoms: _277  and  _280
REMARK  110  A    between atoms: _280  and  _281
REMARK  111  A    between atoms: _284  and  _286
REMARK  112  A    between atoms: _286  and  _287
REMARK  113  A    between atoms: _286  and  _289
REMARK  114  A    between atoms: _289  and  _290
REMARK  115  A    between atoms: _295  and  _297
REMARK  116  A    between atoms: _297  and  _298
REMARK  117  A    between atoms: _297  and  _300
REMARK  118  A    between atoms: _300  and  _301
REMARK  119  A    between atoms: _306  and  _308
REMARK  120  A    between atoms: _308  and  _309
REMARK  121  A    between atoms: _308  and  _311
REMARK  122  A    between atoms: _311  and  _312
REMARK  123  A    between atoms: _315  and  _317
REMARK  124  A    between atoms: _317  and  _318
REMARK  125  A    between atoms: _317  and  _320
REMARK  126  A    between atoms: _323  and  _325
REMARK  127  A    between atoms: _325  and  _326
REMARK  128  A    between atoms: _325  and  _328
REMARK  129  A    between atoms: _328  and  _329
REMARK  130  A    between atoms: _332  and  _334
REMARK  131  A    between atoms: _334  and  _335
REMARK  132  A    between atoms: _334  and  _337
REMARK  133  A    between atoms: _337  and  _338
REMARK  134  A    between atoms: _338  and  _339
REMARK  135  A    between atoms: _342  and  _344
REMARK  136  A    between atoms: _344  and  _345
REMARK  137  A    between atoms: _348  and  _350
REMARK  138  A    between atoms: _350  and  _351
REMARK  139  A    between atoms: _350  and  _353
REMARK  140  A    between atoms: _353  and  _354
REMARK  141  A    between atoms: _357  and  _359
REMARK  142  A    between atoms: _359  and  _360
REMARK  143  A    between atoms: _359  and  _362
REMARK  144  A    between atoms: _362  and  _363
REMARK  145  A    between atoms: _363  and  _364
REMARK  146  A    between atoms: _367  and  _369
REMARK  147  A    between atoms: _369  and  _370
REMARK  148  A    between atoms: _369  and  _372
REMARK  149  A    between atoms: _372  and  _373
REMARK  150  A    between atoms: _378  and  _380
REMARK  151  A    between atoms: _380  and  _381
REMARK  152  A    between atoms: _383  and  _385
REMARK  153  A    between atoms: _385  and  _386
REMARK  154  A    between atoms: _385  and  _388
REMARK  155  A    between atoms: _391  and  _393
REMARK  156  A    between atoms: _393  and  _394
REMARK  157  A    between atoms: _397  and  _399
REMARK  158  A    between atoms: _399  and  _400
REMARK  159  A    between atoms: _399  and  _402
REMARK  160  A    between atoms: _402  and  _403
REMARK  161  A    between atoms: _408  and  _410
REMARK  162  A    between atoms: _410  and  _411
REMARK  163  A    between atoms: _410  and  _413
REMARK  164  A    between atoms: _413  and  _414
REMARK  165  A    between atoms: _414  and  _415
REMARK  166  A    between atoms: _415  and  _416
REMARK  167  A    between atoms: _416  and  _417
REMARK  168  A    between atoms: _421  and  _423
REMARK  169  A    between atoms: _423  and  _424
REMARK  170  A    between atoms: _423  and  _426
REMARK  171  A    between atoms: _426  and  _427
REMARK  172  A    between atoms: _430  and  _432
REMARK  173  A    between atoms: _432  and  _433
REMARK  174  A    between atoms: _432  and  _435
REMARK  175  A    between atoms: _435  and  _436
REMARK  176  A    between atoms: _441  and  _443
REMARK  177  A    between atoms: _443  and  _444
REMARK  178  A    between atoms: _446  and  _448
REMARK  179  A    between atoms: _448  and  _449
REMARK  180  A    between atoms: _448  and  _451
REMARK  181  A    between atoms: _451  and  _452
REMARK  182  A    between atoms: _452  and  _453
REMARK  183  A    between atoms: _453  and  _454
REMARK  184  A    between atoms: _454  and  _455
REMARK  185  A    between atoms: _459  and  _461
REMARK  186  A    between atoms: _461  and  _462
REMARK  187  A    between atoms: _461  and  _464
REMARK  188  A    between atoms: _464  and  _465
REMARK  189  A    between atoms: _465  and  _466
REMARK  190  A    between atoms: _466  and  _467
REMARK  191  A    between atoms: _476  and  _478
REMARK  192  A    between atoms: _478  and  _479
REMARK  193  A    between atoms: _478  and  _481
REMARK  194  A    between atoms: _481  and  _482
REMARK  195  A    between atoms: _487  and  _488
REMARK  196  A    between atoms: _490  and  _492
REMARK  197  A    between atoms: _492  and  _493
REMARK  198  A    between atoms: _492  and  _495
REMARK  199  A    between atoms: _495  and  _496
REMARK  200  A    between atoms: _496  and  _497
REMARK  201  A    between atoms: _497  and  _498
REMARK  202  A    between atoms: _498  and  _499
REMARK  203  A    between atoms: _503  and  _505
REMARK  204  A    between atoms: _505  and  _506
REMARK  205  A    between atoms: _505  and  _508
REMARK  206  A    between atoms: _508  and  _509
REMARK  207  A    between atoms: _511  and  _513
REMARK  208  A    between atoms: _513  and  _514
REMARK  209  A    between atoms: _513  and  _516
REMARK  210  A    between atoms: _516  and  _517
REMARK  211  A    between atoms: _520  and  _522
REMARK  212  A    between atoms: _522  and  _523
REMARK  213  A    between atoms: _522  and  _525
REMARK  214  A    between atoms: _525  and  _526
REMARK  215  A    between atoms: _526  and  _527
REMARK  216  A    between atoms: _530  and  _532
REMARK  217  A    between atoms: _532  and  _533
REMARK  218  A    between atoms: _536  and  _538
REMARK  219  A    between atoms: _538  and  _539
REMARK  220  A    between atoms: _538  and  _541
REMARK  221  A    between atoms: _541  and  _542
REMARK  222  A    between atoms: _544  and  _546
REMARK  223  A    between atoms: _546  and  _547
REMARK  224  A    between atoms: _549  and  _551
REMARK  225  A    between atoms: _551  and  _552
REMARK  226  A    between atoms: _551  and  _554
REMARK  227  A    between atoms: _554  and  _555
REMARK  228  A    between atoms: _558  and  _560
REMARK  229  A    between atoms: _560  and  _561
REMARK  230  A    between atoms: _563  and  _565
REMARK  231  A    between atoms: _565  and  _566
REMARK  232  A    between atoms: _565  and  _568
REMARK  233  A    between atoms: _568  and  _569
REMARK  234  A    between atoms: _574  and  _576
REMARK  235  A    between atoms: _576  and  _577
REMARK  236  A    between atoms: _576  and  _579
REMARK  237  A    between atoms: _579  and  _580
REMARK  238  A    between atoms: _580  and  _581
REMARK  239  A    between atoms: _588  and  _589
REMARK  240  A    between atoms: _589  and  _605
REMARK  241  A    between atoms: _590  and  _592
REMARK  242  A    between atoms: _592  and  _593
REMARK  243  A    between atoms: _593  and  _594
REMARK  244  A    between atoms: _598  and  _600
REMARK  245  A    between atoms: _600  and  _601
REMARK  246  A    between atoms: _600  and  _608
REMARK  247  A    between atoms: _601  and  _602
REMARK  248  A    between atoms: _602  and  _603
REMARK  249  A    between atoms: _603  and  _604
REMARK  250  A    between atoms: _604  and  _605
REMARK  251  A    between atoms: _610  and  _612
REMARK  252  A    between atoms: _612  and  _613
REMARK  253  A    between atoms: _612  and  _615
REMARK  254  A    between atoms: _615  and  _616
REMARK  255  A    between atoms: _619  and  _621
REMARK  256  A    between atoms: _621  and  _622
REMARK  257  A    between atoms: _624  and  _626
REMARK  258  A    between atoms: _626  and  _627
REMARK  259  A    between atoms: _630  and  _632
REMARK  260  A    between atoms: _632  and  _633
REMARK  261  A    between atoms: _632  and  _635
REMARK  262  A    between atoms: _635  and  _636
REMARK  263  A    between atoms: _641  and  _642
REMARK                            x       y       z     vdW  Elec       q    Type
REMARK                         _______ _______ _______ _____ _____    ______ ____
ROOT
ATOM      1  NE  ARG A   1      39.497  25.815  40.150  0.00  0.00    -0.265 N 
ATOM      2  HE  ARG A   1      40.385  25.554  39.676  0.00  0.00    +0.259 HD
ATOM      3  CZ  ARG A   1      38.361  25.430  39.575  0.00  0.00    +0.342 C 
ATOM      4  NH2 ARG A   1      37.187  25.719  40.127  0.00  0.00    -0.292 N 
ATOM      5 HH21 ARG A   1      37.149  26.252  41.019  0.00  0.00    +0.255 HD
ATOM      6 HH22 ARG A   1      36.306  25.412  39.667  0.00  0.00    +0.255 HD
ATOM      7  NH1 ARG A   1      38.406  24.758  38.429  0.00  0.00    -0.292 N 
ATOM      8 HH11 ARG A   1      39.323  24.538  37.991  0.00  0.00    +0.255 HD
ATOM      9 HH12 ARG A   1      37.524  24.452  37.971  0.00  0.00    +0.255 HD
ENDROOT
BRANCH   1  10
ATOM     10  CD  ARG A   1      39.599  26.575  41.394  0.00  0.00    +0.174 C 
BRANCH  10  11
ATOM     11  CG  ARG A   1      40.962  27.258  41.480  0.00  0.00    +0.045 C 
BRANCH  11  12
ATOM     12  CB  ARG A   1      41.058  28.264  42.630  0.00  0.00    +0.029 C 
BRANCH  12  13
ATOM     13  CA  ARG A   1      41.011  27.646  44.029  0.00  0.00    +0.133 C 
BRANCH  13  14
ATOM     14  N   ARG A   1      41.330  28.644  45.052  0.00  0.00    -0.239 NA
ATOM     15  H   ARG A   1      41.669  29.583  44.759  0.00  0.00    +0.142 HD
ENDBRANCH  13  14
BRANCH  13  16
ATOM     16  C   ARG A   1      41.931  26.428  44.125  0.00  0.00    +0.224 C 
ATOM     17  O   ARG A   1      41.472  25.291  44.000  0.00  0.00    -0.287 OA
ENDBRANCH  13  16
ENDBRANCH  12  13
ENDBRANCH  11  12
ENDBRANCH  10  11
ENDBRANCH   1  10
TORSDOF 6
REMARK  Name = ../refined-set-2016/2qrg/2qrg_pocket.pdb
REMARK  263 active torsions:
REMARK  status: ('A' for Active; 'I' for Inactive)
REMARK    1  A    between atoms: _1  and  _3
REMARK    2  A    between atoms: _3  and  _4
REMARK    3  A    between atoms: _3  and  _6
REMARK    4  A    between atoms: _6  and  _7
REMARK    5  A    between atoms: _12  and  _13
REMARK    6  A    between atoms: _15  and  _17
REMARK    7  A    between atoms: _17  and  _18
REMARK    8  A    between atoms: _17  and  _20
REMARK    9  A    between atoms: _20  and  _21
REMARK   10  A    between atoms: _24  and  _26
REMARK   11  A    between atoms: _26  and  _27
REMARK   12  A    between atoms: _26  and  _29
REMARK   13  A    between atoms: _29  and  _30
REMARK   14  A    between atoms: _30  and  _31
REMARK   15  A    between atoms: _34  and  _36
REMARK   16  A    between atoms: _36  and  _37
REMARK   17  A    between atoms: _36  and  _39
REMARK   18  A    between atoms: _39  and  _40
REMARK   19  A    between atoms: _45  and  _47
REMARK   20  A    between atoms: _47  and  _48
REMARK   21  A    between atoms: _50  and  _52
REMARK   22  A    between atoms: _52  and  _53
REMARK   23  A    between atoms: _55  and  _57
REMARK   24  A    between atoms: _57  and  _58
REMARK   25  A    between atoms: _57  and  _60
REMARK   26  A    between atoms: _60  and  _61
REMARK   27  A    between atoms: _64  and  _66
REMARK   28  A    between atoms: _66  and  _67
REMARK   29  A    between atoms: _69  and  _71
REMARK   30  A    between atoms: _71  and  _72
REMARK   31  A    between atoms: _71  and  _74
REMARK   32  A    between atoms: _74  and  _75
REMARK   33  A    between atoms: _75  and  _76
REMARK   34  A    between atoms: _76  and  _77
REMARK   35  A    between atoms: _86  and  _88
REMARK   36  A    between atoms: _88  and  _89
REMARK   37  A    between atoms: _88  and  _91
REMARK   38  A    between atoms: _91  and  _92
REMARK   39  A    between atoms: _95  and  _97
REMARK   40  A    between atoms: _97  and  _98
REMARK   41  A    between atoms: _101  and  _103
REMARK   42  A    between atoms: _103  and  _104
REMARK   43  A    between atoms: _103  and  _106
REMARK   44  A    between atoms: _106  and  _107
REMARK   45  A    between atoms: _113  and  _115
REMARK   46  A    between atoms: _115  and  _116
REMARK   47  A    between atoms: _115  and  _118
REMARK   48  A    between atoms: _118  and  _119
REMARK   49  A    between atoms: _122  and  _124
REMARK   50  A    between atoms: _124  and  _125
REMARK   51  A    between atoms: _124  and  _127
REMARK   52  A    between atoms: _127  and  _128
REMARK   53  A    between atoms: _133  and  _134
REMARK   54  A    between atoms: _137  and  _138
REMARK   55  A    between atoms: _143  and  _145
REMARK   56  A    between atoms: _145  and  _146
REMARK   57  A    between atoms: _145  and  _148
REMARK   58  A    between atoms: _148  and  _149
REMARK   59  A    between atoms: _154  and  _156
REMARK   60  A    between atoms: _156  and  _157
REMARK   61  A    between atoms: _156  and  _159
REMARK   62  A    between atoms: _159  and  _160
REMARK   63  A    between atoms: _163  and  _165
REMARK   64  A    between atoms: _165  and  _166
REMARK   65  A    between atoms: _165  and  _168
REMARK   66  A    between atoms: _168  and  _169
REMARK   67  A    between atoms: _174  and  _176
REMARK   68  A    between atoms: _176  and  _177
REMARK   69  A    between atoms: _176  and  _179
REMARK   70  A    between atoms: _179  and  _180
REMARK   71  A    between atoms: _186  and  _188
REMARK   72  A    between atoms: _188  and  _189
REMARK   73  A    between atoms: _188  and  _191
REMARK   74  A    between atoms: _191  and  _192
REMARK   75  A    between atoms: _198  and  _200
REMARK   76  A    between atoms: _200  and  _201
REMARK   77  A    between atoms: _200  and  _203
REMARK   78  A    between atoms: _203  and  _204
REMARK   79  A    between atoms: _204  and  _205
REMARK   80  A    between atoms: _208  and  _210
REMARK   81  A    between atoms: _210  and  _211
REMARK   82  A    between atoms: _210  and  _213
REMARK   83  A    between atoms: _213  and  _214
REMARK   84  A    between atoms: _214  and  _215
REMARK   85  A    between atoms: _215  and  _216
REMARK   86  A    between atoms: _225  and  _227
REMARK   87  A    between atoms: _227  and  _228
REMARK   88  A    between atoms: _227  and  _230
REMARK   89  A    between atoms: _230  and  _231
REMARK   90  A    between atoms: _231  and  _232
REMARK   91  A    between atoms: _235  and  _237
REMARK   92  A    between atoms: _237  and  _238
REMARK   93  A    between atoms: _237  and  _240
REMARK   94  A    between atoms: _240  and  _241
REMARK   95  A    between atoms: _246  and  _248
REMARK   96  A    between atoms: _248  and  _249
REMARK   97  A    between atoms: _248  and  _251
REMARK   98  A    between atoms: _251  and  _252
REMARK   99  A    between atoms: _255  and  _257
REMARK  100  A    between atoms: _257  and  _258
REMARK  101  A    between atoms: _257  and  _260
REMARK  102  A    between atoms: _260  and  _261
REMARK  103  A    between atoms: _264  and  _266
REMARK  104  A    between atoms: _266  and  _267
REMARK  105  A    between atoms: _266  and  _269
REMARK  106  A    between atoms: _269  and  _270
REMARK  107  A    between atoms: _275  and  _277
REMARK  108  A    between atoms: _277  and  _278
REMARK  109  A    between atoms: _277  and  _280
REMARK  110  A    between atoms: _280  and  _281
REMARK  111  A    between atoms: _284  and  _286
REMARK  112  A    between atoms: _286  and  _287
REMARK  113  A    between atoms: _286  and  _289
REMARK  114  A    between atoms: _289  and  _290
REMARK  115  A    between atoms: _295  and  _297
REMARK  116  A    between atoms: _297  and  _298
REMARK  117  A    between atoms: _297  and  _300
REMARK  118  A    between atoms: _300  and  _301
REMARK  119  A    between atoms: _306  and  _308
REMARK  120  A    between atoms: _308  and  _309
REMARK  121  A    between atoms: _308  and  _311
REMARK  122  A    between atoms: _311  and  _312
REMARK  123  A    between atoms: _315  and  _317
REMARK  124  A    between atoms: _317  and  _318
REMARK  125  A    between atoms: _317  and  _320
REMARK  126  A    between atoms: _323  and  _325
REMARK  127  A    between atoms: _325  and  _326
REMARK  128  A    between atoms: _325  and  _328
REMARK  129  A    between atoms: _328  and  _329
REMARK  130  A    between atoms: _332  and  _334
REMARK  131  A    between atoms: _334  and  _335
REMARK  132  A    between atoms: _334  and  _337
REMARK  133  A    between atoms: _337  and  _338
REMARK  134  A    between atoms: _338  and  _339
REMARK  135  A    between atoms: _342  and  _344
REMARK  136  A    between atoms: _344  and  _345
REMARK  137  A    between atoms: _348  and  _350
REMARK  138  A    between atoms: _350  and  _351
REMARK  139  A    between atoms: _350  and  _353
REMARK  140  A    between atoms: _353  and  _354
REMARK  141  A    between atoms: _357  and  _359
REMARK  142  A    between atoms: _359  and  _360
REMARK  143  A    between atoms: _359  and  _362
REMARK  144  A    between atoms: _362  and  _363
REMARK  145  A    between atoms: _363  and  _364
REMARK  146  A    between atoms: _367  and  _369
REMARK  147  A    between atoms: _369  and  _370
REMARK  148  A    between atoms: _369  and  _372
REMARK  149  A    between atoms: _372  and  _373
REMARK  150  A    between atoms: _378  and  _380
REMARK  151  A    between atoms: _380  and  _381
REMARK  152  A    between atoms: _383  and  _385
REMARK  153  A    between atoms: _385  and  _386
REMARK  154  A    between atoms: _385  and  _388
REMARK  155  A    between atoms: _391  and  _393
REMARK  156  A    between atoms: _393  and  _394
REMARK  157  A    between atoms: _397  and  _399
REMARK  158  A    between atoms: _399  and  _400
REMARK  159  A    between atoms: _399  and  _402
REMARK  160  A    between atoms: _402  and  _403
REMARK  161  A    between atoms: _408  and  _410
REMARK  162  A    between atoms: _410  and  _411
REMARK  163  A    between atoms: _410  and  _413
REMARK  164  A    between atoms: _413  and  _414
REMARK  165  A    between atoms: _414  and  _415
REMARK  166  A    between atoms: _415  and  _416
REMARK  167  A    between atoms: _416  and  _417
REMARK  168  A    between atoms: _421  and  _423
REMARK  169  A    between atoms: _423  and  _424
REMARK  170  A    between atoms: _423  and  _426
REMARK  171  A    between atoms: _426  and  _427
REMARK  172  A    between atoms: _430  and  _432
REMARK  173  A    between atoms: _432  and  _433
REMARK  174  A    between atoms: _432  and  _435
REMARK  175  A    between atoms: _435  and  _436
REMARK  176  A    between atoms: _441  and  _443
REMARK  177  A    between atoms: _443  and  _444
REMARK  178  A    between atoms: _446  and  _448
REMARK  179  A    between atoms: _448  and  _449
REMARK  180  A    between atoms: _448  and  _451
REMARK  181  A    between atoms: _451  and  _452
REMARK  182  A    between atoms: _452  and  _453
REMARK  183  A    between atoms: _453  and  _454
REMARK  184  A    between atoms: _454  and  _455
REMARK  185  A    between atoms: _459  and  _461
REMARK  186  A    between atoms: _461  and  _462
REMARK  187  A    between atoms: _461  and  _464
REMARK  188  A    between atoms: _464  and  _465
REMARK  189  A    between atoms: _465  and  _466
REMARK  190  A    between atoms: _466  and  _467
REMARK  191  A    between atoms: _476  and  _478
REMARK  192  A    between atoms: _478  and  _479
REMARK  193  A    between atoms: _478  and  _481
REMARK  194  A    between atoms: _481  and  _482
REMARK  195  A    between atoms: _487  and  _488
REMARK  196  A    between atoms: _490  and  _492
REMARK  197  A    between atoms: _492  and  _493
REMARK  198  A    between atoms: _492  and  _495
REMARK  199  A    between atoms: _495  and  _496
REMARK  200  A    between atoms: _496  and  _497
REMARK  201  A    between atoms: _497  and  _498
REMARK  202  A    between atoms: _498  and  _499
REMARK  203  A    between atoms: _503  and  _505
REMARK  204  A    between atoms: _505  and  _506
REMARK  205  A    between atoms: _505  and  _508
REMARK  206  A    between atoms: _508  and  _509
REMARK  207  A    between atoms: _511  and  _513
REMARK  208  A    between atoms: _513  and  _514
REMARK  209  A    between atoms: _513  and  _516
REMARK  210  A    between atoms: _516  and  _517
REMARK  211  A    between atoms: _520  and  _522
REMARK  212  A    between atoms: _522  and  _523
REMARK  213  A    between atoms: _522  and  _525
REMARK  214  A    between atoms: _525  and  _526
REMARK  215  A    between atoms: _526  and  _527
REMARK  216  A    between atoms: _530  and  _532
REMARK  217  A    between atoms: _532  and  _533
REMARK  218  A    between atoms: _536  and  _538
REMARK  219  A    between atoms: _538  and  _539
REMARK  220  A    between atoms: _538  and  _541
REMARK  221  A    between atoms: _541  and  _542
REMARK  222  A    between atoms: _544  and  _546
REMARK  223  A    between atoms: _546  and  _547
REMARK  224  A    between atoms: _549  and  _551
REMARK  225  A    between atoms: _551  and  _552
REMARK  226  A    between atoms: _551  and  _554
REMARK  227  A    between atoms: _554  and  _555
REMARK  228  A    between atoms: _558  and  _560
REMARK  229  A    between atoms: _560  and  _561
REMARK  230  A    between atoms: _563  and  _565
REMARK  231  A    between atoms: _565  and  _566
REMARK  232  A    between atoms: _565  and  _568
REMARK  233  A    between atoms: _568  and  _569
REMARK  234  A    between atoms: _574  and  _576
REMARK  235  A    between atoms: _576  and  _577
REMARK  236  A    between atoms: _576  and  _579
REMARK  237  A    between atoms: _579  and  _580
REMARK  238  A    between atoms: _580  and  _581
REMARK  239  A    between atoms: _588  and  _589
REMARK  240  A    between atoms: _589  and  _605
REMARK  241  A    between atoms: _590  and  _592
REMARK  242  A    between atoms: _592  and  _593
REMARK  243  A    between atoms: _593  and  _594
REMARK  244  A    between atoms: _598  and  _600
REMARK  245  A    between atoms: _600  and  _601
REMARK  246  A    between atoms: _600  and  _608
REMARK  247  A    between atoms: _601  and  _602
REMARK  248  A    between atoms: _602  and  _603
REMARK  249  A    between atoms: _603  and  _604
REMARK  250  A    between atoms: _604  and  _605
REMARK  251  A    between atoms: _610  and  _612
REMARK  252  A    between atoms: _612  and  _613
REMARK  253  A    between atoms: _612  and  _615
REMARK  254  A    between atoms: _615  and  _616
REMARK  255  A    between atoms: _619  and  _621
REMARK  256  A    between atoms: _621  and  _622
REMARK  257  A    between atoms: _624  and  _626
REMARK  258  A    between atoms: _626  and  _627
REMARK  259  A    between atoms: _630  and  _632
REMARK  260  A    between atoms: _632  and  _633
REMARK  261  A    between atoms: _632  and  _635
REMARK  262  A    between atoms: _635  and  _636
REMARK  263  A    between atoms: _641  and  _642
REMARK                            x       y       z     vdW  Elec       q    Type
REMARK                         _______ _______ _______ _____ _____    ______ ____
ROOT
ATOM      1  CA  GLU A   1      41.420  21.351  44.000  0.00  0.00    +0.134 C 
ENDROOT
BRANCH   1   2
ATOM      2  N   GLU A   1      40.960  22.449  44.842  0.00  0.00    -0.239 NA
ATOM      3  H   GLU A   1      41.373  23.395  44.713  0.00  0.00    +0.142 HD
ENDBRANCH   1   2
BRANCH   1   4
ATOM      4  C   GLU A   1      42.120  20.251  44.800  0.00  0.00    +0.224 C 
ATOM      5  O   GLU A   1      41.891  19.067  44.548  0.00  0.00    -0.287 OA
ENDBRANCH   1   4
BRANCH   1   6
ATOM      6  CB  GLU A   1      42.302  21.876  42.864  0.00  0.00    +0.037 C 
BRANCH   6   7
ATOM      7  CG  GLU A   1      41.520  22.694  41.839  0.00  0.00    +0.116 C 
BRANCH   7   8
ATOM      8  CD  GLU A   1      42.364  23.173  40.672  0.00  0.00    +0.365 C 
ATOM      9  OE2 GLU A   1      43.606  23.024  40.714  0.00  0.00    -0.246 OA
ATOM     10  OE1 GLU A   1      41.772  23.694  39.700  0.00  0.00    -0.246 OA
ENDBRANCH   7   8
ENDBRANCH   6   7
ENDBRANCH   1   6
TORSDOF 5
REMARK  Name = ../refined-set-2016/2qrg/2qrg_pocket.pdb
REMARK  263 active torsions:
REMARK  status: ('A' for Active; 'I' for Inactive)
REMARK    1  A    between atoms: _1  and  _3
REMARK    2  A    between atoms: _3  and  _4
REMARK    3  A    between atoms: _3  and  _6
REMARK    4  A    between atoms: _6  and  _7
REMARK    5  A    between atoms: _12  and  _13
REMARK    6  A    between atoms: _15  and  _17
REMARK    7  A    between atoms: _17  and  _18
REMARK    8  A    between atoms: _17  and  _20
REMARK    9  A    between atoms: _20  and  _21
REMARK   10  A    between atoms: _24  and  _26
REMARK   11  A    between atoms: _26  and  _27
REMARK   12  A    between atoms: _26  and  _29
REMARK   13  A    between atoms: _29  and  _30
REMARK   14  A    between atoms: _30  and  _31
REMARK   15  A    between atoms: _34  and  _36
REMARK   16  A    between atoms: _36  and  _37
REMARK   17  A    between atoms: _36  and  _39
REMARK   18  A    between atoms: _39  and  _40
REMARK   19  A    between atoms: _45  and  _47
REMARK   20  A    between atoms: _47  and  _48
REMARK   21  A    between atoms: _50  and  _52
REMARK   22  A    between atoms: _52  and  _53
REMARK   23  A    between atoms: _55  and  _57
REMARK   24  A    between atoms: _57  and  _58
REMARK   25  A    between atoms: _57  and  _60
REMARK   26  A    between atoms: _60  and  _61
REMARK   27  A    between atoms: _64  and  _66
REMARK   28  A    between atoms: _66  and  _67
REMARK   29  A    between atoms: _69  and  _71
REMARK   30  A    between atoms: _71  and  _72
REMARK   31  A    between atoms: _71  and  _74
REMARK   32  A    between atoms: _74  and  _75
REMARK   33  A    between atoms: _75  and  _76
REMARK   34  A    between atoms: _76  and  _77
REMARK   35  A    between atoms: _86  and  _88
REMARK   36  A    between atoms: _88  and  _89
REMARK   37  A    between atoms: _88  and  _91
REMARK   38  A    between atoms: _91  and  _92
REMARK   39  A    between atoms: _95  and  _97
REMARK   40  A    between atoms: _97  and  _98
REMARK   41  A    between atoms: _101  and  _103
REMARK   42  A    between atoms: _103  and  _104
REMARK   43  A    between atoms: _103  and  _106
REMARK   44  A    between atoms: _106  and  _107
REMARK   45  A    between atoms: _113  and  _115
REMARK   46  A    between atoms: _115  and  _116
REMARK   47  A    between atoms: _115  and  _118
REMARK   48  A    between atoms: _118  and  _119
REMARK   49  A    between atoms: _122  and  _124
REMARK   50  A    between atoms: _124  and  _125
REMARK   51  A    between atoms: _124  and  _127
REMARK   52  A    between atoms: _127  and  _128
REMARK   53  A    between atoms: _133  and  _134
REMARK   54  A    between atoms: _137  and  _138
REMARK   55  A    between atoms: _143  and  _145
REMARK   56  A    between atoms: _145  and  _146
REMARK   57  A    between atoms: _145  and  _148
REMARK   58  A    between atoms: _148  and  _149
REMARK   59  A    between atoms: _154  and  _156
REMARK   60  A    between atoms: _156  and  _157
REMARK   61  A    between atoms: _156  and  _159
REMARK   62  A    between atoms: _159  and  _160
REMARK   63  A    between atoms: _163  and  _165
REMARK   64  A    between atoms: _165  and  _166
REMARK   65  A    between atoms: _165  and  _168
REMARK   66  A    between atoms: _168  and  _169
REMARK   67  A    between atoms: _174  and  _176
REMARK   68  A    between atoms: _176  and  _177
REMARK   69  A    between atoms: _176  and  _179
REMARK   70  A    between atoms: _179  and  _180
REMARK   71  A    between atoms: _186  and  _188
REMARK   72  A    between atoms: _188  and  _189
REMARK   73  A    between atoms: _188  and  _191
REMARK   74  A    between atoms: _191  and  _192
REMARK   75  A    between atoms: _198  and  _200
REMARK   76  A    between atoms: _200  and  _201
REMARK   77  A    between atoms: _200  and  _203
REMARK   78  A    between atoms: _203  and  _204
REMARK   79  A    between atoms: _204  and  _205
REMARK   80  A    between atoms: _208  and  _210
REMARK   81  A    between atoms: _210  and  _211
REMARK   82  A    between atoms: _210  and  _213
REMARK   83  A    between atoms: _213  and  _214
REMARK   84  A    between atoms: _214  and  _215
REMARK   85  A    between atoms: _215  and  _216
REMARK   86  A    between atoms: _225  and  _227
REMARK   87  A    between atoms: _227  and  _228
REMARK   88  A    between atoms: _227  and  _230
REMARK   89  A    between atoms: _230  and  _231
REMARK   90  A    between atoms: _231  and  _232
REMARK   91  A    between atoms: _235  and  _237
REMARK   92  A    between atoms: _237  and  _238
REMARK   93  A    between atoms: _237  and  _240
REMARK   94  A    between atoms: _240  and  _241
REMARK   95  A    between atoms: _246  and  _248
REMARK   96  A    between atoms: _248  and  _249
REMARK   97  A    between atoms: _248  and  _251
REMARK   98  A    between atoms: _251  and  _252
REMARK   99  A    between atoms: _255  and  _257
REMARK  100  A    between atoms: _257  and  _258
REMARK  101  A    between atoms: _257  and  _260
REMARK  102  A    between atoms: _260  and  _261
REMARK  103  A    between atoms: _264  and  _266
REMARK  104  A    between atoms: _266  and  _267
REMARK  105  A    between atoms: _266  and  _269
REMARK  106  A    between atoms: _269  and  _270
REMARK  107  A    between atoms: _275  and  _277
REMARK  108  A    between atoms: _277  and  _278
REMARK  109  A    between atoms: _277  and  _280
REMARK  110  A    between atoms: _280  and  _281
REMARK  111  A    between atoms: _284  and  _286
REMARK  112  A    between atoms: _286  and  _287
REMARK  113  A    between atoms: _286  and  _289
REMARK  114  A    between atoms: _289  and  _290
REMARK  115  A    between atoms: _295  and  _297
REMARK  116  A    between atoms: _297  and  _298
REMARK  117  A    between atoms: _297  and  _300
REMARK  118  A    between atoms: _300  and  _301
REMARK  119  A    between atoms: _306  and  _308
REMARK  120  A    between atoms: _308  and  _309
REMARK  121  A    between atoms: _308  and  _311
REMARK  122  A    between atoms: _311  and  _312
REMARK  123  A    between atoms: _315  and  _317
REMARK  124  A    between atoms: _317  and  _318
REMARK  125  A    between atoms: _317  and  _320
REMARK  126  A    between atoms: _323  and  _325
REMARK  127  A    between atoms: _325  and  _326
REMARK  128  A    between atoms: _325  and  _328
REMARK  129  A    between atoms: _328  and  _329
REMARK  130  A    between atoms: _332  and  _334
REMARK  131  A    between atoms: _334  and  _335
REMARK  132  A    between atoms: _334  and  _337
REMARK  133  A    between atoms: _337  and  _338
REMARK  134  A    between atoms: _338  and  _339
REMARK  135  A    between atoms: _342  and  _344
REMARK  136  A    between atoms: _344  and  _345
REMARK  137  A    between atoms: _348  and  _350
REMARK  138  A    between atoms: _350  and  _351
REMARK  139  A    between atoms: _350  and  _353
REMARK  140  A    between atoms: _353  and  _354
REMARK  141  A    between atoms: _357  and  _359
REMARK  142  A    between atoms: _359  and  _360
REMARK  143  A    between atoms: _359  and  _362
REMARK  144  A    between atoms: _362  and  _363
REMARK  145  A    between atoms: _363  and  _364
REMARK  146  A    between atoms: _367  and  _369
REMARK  147  A    between atoms: _369  and  _370
REMARK  148  A    between atoms: _369  and  _372
REMARK  149  A    between atoms: _372  and  _373
REMARK  150  A    between atoms: _378  and  _380
REMARK  151  A    between atoms: _380  and  _381
REMARK  152  A    between atoms: _383  and  _385
REMARK  153  A    between atoms: _385  and  _386
REMARK  154  A    between atoms: _385  and  _388
REMARK  155  A    between atoms: _391  and  _393
REMARK  156  A    between atoms: _393  and  _394
REMARK  157  A    between atoms: _397  and  _399
REMARK  158  A    between atoms: _399  and  _400
REMARK  159  A    between atoms: _399  and  _402
REMARK  160  A    between atoms: _402  and  _403
REMARK  161  A    between atoms: _408  and  _410
REMARK  162  A    between atoms: _410  and  _411
REMARK  163  A    between atoms: _410  and  _413
REMARK  164  A    between atoms: _413  and  _414
REMARK  165  A    between atoms: _414  and  _415
REMARK  166  A    between atoms: _415  and  _416
REMARK  167  A    between atoms: _416  and  _417
REMARK  168  A    between atoms: _421  and  _423
REMARK  169  A    between atoms: _423  and  _424
REMARK  170  A    between atoms: _423  and  _426
REMARK  171  A    between atoms: _426  and  _427
REMARK  172  A    between atoms: _430  and  _432
REMARK  173  A    between atoms: _432  and  _433
REMARK  174  A    between atoms: _432  and  _435
REMARK  175  A    between atoms: _435  and  _436
REMARK  176  A    between atoms: _441  and  _443
REMARK  177  A    between atoms: _443  and  _444
REMARK  178  A    between atoms: _446  and  _448
REMARK  179  A    between atoms: _448  and  _449
REMARK  180  A    between atoms: _448  and  _451
REMARK  181  A    between atoms: _451  and  _452
REMARK  182  A    between atoms: _452  and  _453
REMARK  183  A    between atoms: _453  and  _454
REMARK  184  A    between atoms: _454  and  _455
REMARK  185  A    between atoms: _459  and  _461
REMARK  186  A    between atoms: _461  and  _462
REMARK  187  A    between atoms: _461  and  _464
REMARK  188  A    between atoms: _464  and  _465
REMARK  189  A    between atoms: _465  and  _466
REMARK  190  A    between atoms: _466  and  _467
REMARK  191  A    between atoms: _476  and  _478
REMARK  192  A    between atoms: _478  and  _479
REMARK  193  A    between atoms: _478  and  _481
REMARK  194  A    between atoms: _481  and  _482
REMARK  195  A    between atoms: _487  and  _488
REMARK  196  A    between atoms: _490  and  _492
REMARK  197  A    between atoms: _492  and  _493
REMARK  198  A    between atoms: _492  and  _495
REMARK  199  A    between atoms: _495  and  _496
REMARK  200  A    between atoms: _496  and  _497
REMARK  201  A    between atoms: _497  and  _498
REMARK  202  A    between atoms: _498  and  _499
REMARK  203  A    between atoms: _503  and  _505
REMARK  204  A    between atoms: _505  and  _506
REMARK  205  A    between atoms: _505  and  _508
REMARK  206  A    between atoms: _508  and  _509
REMARK  207  A    between atoms: _511  and  _513
REMARK  208  A    between atoms: _513  and  _514
REMARK  209  A    between atoms: _513  and  _516
REMARK  210  A    between atoms: _516  and  _517
REMARK  211  A    between atoms: _520  and  _522
REMARK  212  A    between atoms: _522  and  _523
REMARK  213  A    between atoms: _522  and  _525
REMARK  214  A    between atoms: _525  and  _526
REMARK  215  A    between atoms: _526  and  _527
REMARK  216  A    between atoms: _530  and  _532
REMARK  217  A    between atoms: _532  and  _533
REMARK  218  A    between atoms: _536  and  _538
REMARK  219  A    between atoms: _538  and  _539
REMARK  220  A    between atoms: _538  and  _541
REMARK  221  A    between atoms: _541  and  _542
REMARK  222  A    between atoms: _544  and  _546
REMARK  223  A    between atoms: _546  and  _547
REMARK  224  A    between atoms: _549  and  _551
REMARK  225  A    between atoms: _551  and  _552
REMARK  226  A    between atoms: _551  and  _554
REMARK  227  A    between atoms: _554  and  _555
REMARK  228  A    between atoms: _558  and  _560
REMARK  229  A    between atoms: _560  and  _561
REMARK  230  A    between atoms: _563  and  _565
REMARK  231  A    between atoms: _565  and  _566
REMARK  232  A    between atoms: _565  and  _568
REMARK  233  A    between atoms: _568  and  _569
REMARK  234  A    between atoms: _574  and  _576
REMARK  235  A    between atoms: _576  and  _577
REMARK  236  A    between atoms: _576  and  _579
REMARK  237  A    between atoms: _579  and  _580
REMARK  238  A    between atoms: _580  and  _581
REMARK  239  A    between atoms: _588  and  _589
REMARK  240  A    between atoms: _589  and  _605
REMARK  241  A    between atoms: _590  and  _592
REMARK  242  A    between atoms: _592  and  _593
REMARK  243  A    between atoms: _593  and  _594
REMARK  244  A    between atoms: _598  and  _600
REMARK  245  A    between atoms: _600  and  _601
REMARK  246  A    between atoms: _600  and  _608
REMARK  247  A    between atoms: _601  and  _602
REMARK  248  A    between atoms: _602  and  _603
REMARK  249  A    between atoms: _603  and  _604
REMARK  250  A    between atoms: _604  and  _605
REMARK  251  A    between atoms: _610  and  _612
REMARK  252  A    between atoms: _612  and  _613
REMARK  253  A    between atoms: _612  and  _615
REMARK  254  A    between atoms: _615  and  _616
REMARK  255  A    between atoms: _619  and  _621
REMARK  256  A    between atoms: _621  and  _622
REMARK  257  A    between atoms: _624  and  _626
REMARK  258  A    between atoms: _626  and  _627
REMARK  259  A    between atoms: _630  and  _632
REMARK  260  A    between atoms: _632  and  _633
REMARK  261  A    between atoms: _632  and  _635
REMARK  262  A    between atoms: _635  and  _636
REMARK  263  A    between atoms: _641  and  _642
REMARK                            x       y       z     vdW  Elec       q    Type
REMARK                         _______ _______ _______ _____ _____    ______ ____
ROOT
ATOM      1  C   ASP A   2      41.223  18.173  33.908  0.00  0.00    +0.241 C 
ATOM      2  O   ASP A   2      41.366  17.157  34.587  0.00  0.00    -0.273 OA
ATOM      3  N   THR A   3      42.034  19.223  34.014  0.00  0.00    -0.295 N 
ATOM      4  H   THR A   3      41.844  20.072  33.445  0.00  0.00    +0.150 HD
ENDROOT
BRANCH   1   5
ATOM      5  CA  ASP A   2      40.087  18.250  32.874  0.00  0.00    +0.160 C 
BRANCH   5   8
ATOM      6  C   ASN A   1      38.313  17.163  34.228  0.00  0.00    +0.239 C 
ATOM      7  O   ASN A   1      38.237  18.076  35.056  0.00  0.00    -0.274 OA
ATOM      8  N   ASP A   2      39.064  17.223  33.126  0.00  0.00    -0.297 N 
ATOM      9  H   ASP A   2      38.916  16.496  32.397  0.00  0.00    +0.150 HD
BRANCH   6  10
ATOM     10  CA  ASN A   1      37.528  15.862  34.418  0.00  0.00    +0.154 C 
BRANCH  10  11
ATOM     11  N   ASN A   1      38.320  14.937  35.231  0.00  0.00    -0.238 NA
ATOM     12  H   ASN A   1      38.105  14.852  36.245  0.00  0.00    +0.142 HD
ENDBRANCH  10  11
BRANCH  10  13
ATOM     13  CB  ASN A   1      36.162  16.125  35.077  0.00  0.00    +0.111 C 
BRANCH  13  14
ATOM     14  CG  ASN A   1      35.110  16.630  34.092  0.00  0.00    +0.221 C 
ATOM     15  ND2 ASN A   1      34.090  17.306  34.611  0.00  0.00    -0.329 N 
ATOM     16 HD21 ASN A   1      34.047  17.477  35.636  0.00  0.00    +0.145 HD
ATOM     17 HD22 ASN A   1      33.335  17.664  33.992  0.00  0.00    +0.145 HD
ATOM     18  OD1 ASN A   1      35.204  16.403  32.888  0.00  0.00    -0.275 OA
ENDBRANCH  13  14
ENDBRANCH  10  13
ENDBRANCH   6  10
ENDBRANCH   5   8
BRANCH   5  19
ATOM     19  CB  ASP A   2      39.493  19.662  32.757  0.00  0.00    +0.143 C 
BRANCH  19  20
ATOM     20  CG  ASP A   2      40.243  20.513  31.749  0.00  0.00    +0.367 C 
ATOM     21  OD2 ASP A   2      41.152  21.255  32.169  0.00  0.00    -0.246 OA
ATOM     22  OD1 ASP A   2      39.946  20.420  30.537  0.00  0.00    -0.246 OA
ENDBRANCH  19  20
ENDBRANCH   5  19
ENDBRANCH   1   5
BRANCH   3  23
ATOM     23  CA  THR A   3      43.193  19.208  34.918  0.00  0.00    +0.176 C 
BRANCH  23  24
ATOM     24  C   THR A   3      42.836  19.659  36.333  0.00  0.00    +0.243 C 
ATOM     25  O   THR A   3      43.685  19.666  37.225  0.00  0.00    -0.273 OA
ATOM     26  N   HIS A   4      41.576  20.031  36.545  0.00  0.00    -0.298 N 
ATOM     27  H   HIS A   4      40.874  19.944  35.783  0.00  0.00    +0.150 HD
BRANCH  26  28
ATOM     28  CA  HIS A   4      41.178  20.562  37.848  0.00  0.00    +0.143 C 
BRANCH  28  29
ATOM     29  C   HIS A   4      41.480  19.609  39.020  0.00  0.00    +0.227 C 
ATOM     30  O   HIS A   4      41.930  20.064  40.073  0.00  0.00    -0.286 OA
ENDBRANCH  28  29
BRANCH  28  31
ATOM     31  CB  HIS A   4      39.723  21.067  37.839  0.00  0.00    +0.075 C 
BRANCH  31  32
ATOM     32  CG  HIS A   4      39.375  21.880  36.626  0.00  0.00    +0.082 A 
ATOM     33  ND1 HIS A   4      38.094  21.957  36.124  0.00  0.00    -0.227 NA
ATOM     34  CE1 HIS A   4      38.089  22.731  35.053  0.00  0.00    +0.199 A 
ATOM     35  NE2 HIS A   4      39.323  23.150  34.834  0.00  0.00    -0.221 NA
ATOM     36  CD2 HIS A   4      40.147  22.630  35.802  0.00  0.00    +0.115 A 
ENDBRANCH  31  32
ENDBRANCH  28  31
ENDBRANCH  26  28
ENDBRANCH  23  24
BRANCH  23  37
ATOM     37  CB  THR A   3      44.357  20.090  34.398  0.00  0.00    +0.137 C 
ATOM     38  CG2 THR A   3      44.852  19.593  33.045  0.00  0.00    +0.034 C 
BRANCH  37  39
ATOM     39  OG1 THR A   3      43.925  21.449  34.282  0.00  0.00    -0.382 OA
ATOM     40  HG1 THR A   3      43.636  21.779  35.169  0.00  0.00    +0.210 HD
ENDBRANCH  37  39
ENDBRANCH  23  37
ENDBRANCH   3  23
TORSDOF 16
REMARK  Name = ../refined-set-2016/2qrg/2qrg_pocket.pdb
REMARK  263 active torsions:
REMARK  status: ('A' for Active; 'I' for Inactive)
REMARK    1  A    between atoms: _1  and  _3
REMARK    2  A    between atoms: _3  and  _4
REMARK    3  A    between atoms: _3  and  _6
REMARK    4  A    between atoms: _6  and  _7
REMARK    5  A    between atoms: _12  and  _13
REMARK    6  A    between atoms: _15  and  _17
REMARK    7  A    between atoms: _17  and  _18
REMARK    8  A    between atoms: _17  and  _20
REMARK    9  A    between atoms: _20  and  _21
REMARK   10  A    between atoms: _24  and  _26
REMARK   11  A    between atoms: _26  and  _27
REMARK   12  A    between atoms: _26  and  _29
REMARK   13  A    between atoms: _29  and  _30
REMARK   14  A    between atoms: _30  and  _31
REMARK   15  A    between atoms: _34  and  _36
REMARK   16  A    between atoms: _36  and  _37
REMARK   17  A    between atoms: _36  and  _39
REMARK   18  A    between atoms: _39  and  _40
REMARK   19  A    between atoms: _45  and  _47
REMARK   20  A    between atoms: _47  and  _48
REMARK   21  A    between atoms: _50  and  _52
REMARK   22  A    between atoms: _52  and  _53
REMARK   23  A    between atoms: _55  and  _57
REMARK   24  A    between atoms: _57  and  _58
REMARK   25  A    between atoms: _57  and  _60
REMARK   26  A    between atoms: _60  and  _61
REMARK   27  A    between atoms: _64  and  _66
REMARK   28  A    between atoms: _66  and  _67
REMARK   29  A    between atoms: _69  and  _71
REMARK   30  A    between atoms: _71  and  _72
REMARK   31  A    between atoms: _71  and  _74
REMARK   32  A    between atoms: _74  and  _75
REMARK   33  A    between atoms: _75  and  _76
REMARK   34  A    between atoms: _76  and  _77
REMARK   35  A    between atoms: _86  and  _88
REMARK   36  A    between atoms: _88  and  _89
REMARK   37  A    between atoms: _88  and  _91
REMARK   38  A    between atoms: _91  and  _92
REMARK   39  A    between atoms: _95  and  _97
REMARK   40  A    between atoms: _97  and  _98
REMARK   41  A    between atoms: _101  and  _103
REMARK   42  A    between atoms: _103  and  _104
REMARK   43  A    between atoms: _103  and  _106
REMARK   44  A    between atoms: _106  and  _107
REMARK   45  A    between atoms: _113  and  _115
REMARK   46  A    between atoms: _115  and  _116
REMARK   47  A    between atoms: _115  and  _118
REMARK   48  A    between atoms: _118  and  _119
REMARK   49  A    between atoms: _122  and  _124
REMARK   50  A    between atoms: _124  and  _125
REMARK   51  A    between atoms: _124  and  _127
REMARK   52  A    between atoms: _127  and  _128
REMARK   53  A    between atoms: _133  and  _134
REMARK   54  A    between atoms: _137  and  _138
REMARK   55  A    between atoms: _143  and  _145
REMARK   56  A    between atoms: _145  and  _146
REMARK   57  A    between atoms: _145  and  _148
REMARK   58  A    between atoms: _148  and  _149
REMARK   59  A    between atoms: _154  and  _156
REMARK   60  A    between atoms: _156  and  _157
REMARK   61  A    between atoms: _156  and  _159
REMARK   62  A    between atoms: _159  and  _160
REMARK   63  A    between atoms: _163  and  _165
REMARK   64  A    between atoms: _165  and  _166
REMARK   65  A    between atoms: _165  and  _168
REMARK   66  A    between atoms: _168  and  _169
REMARK   67  A    between atoms: _174  and  _176
REMARK   68  A    between atoms: _176  and  _177
REMARK   69  A    between atoms: _176  and  _179
REMARK   70  A    between atoms: _179  and  _180
REMARK   71  A    between atoms: _186  and  _188
REMARK   72  A    between atoms: _188  and  _189
REMARK   73  A    between atoms: _188  and  _191
REMARK   74  A    between atoms: _191  and  _192
REMARK   75  A    between atoms: _198  and  _200
REMARK   76  A    between atoms: _200  and  _201
REMARK   77  A    between atoms: _200  and  _203
REMARK   78  A    between atoms: _203  and  _204
REMARK   79  A    between atoms: _204  and  _205
REMARK   80  A    between atoms: _208  and  _210
REMARK   81  A    between atoms: _210  and  _211
REMARK   82  A    between atoms: _210  and  _213
REMARK   83  A    between atoms: _213  and  _214
REMARK   84  A    between atoms: _214  and  _215
REMARK   85  A    between atoms: _215  and  _216
REMARK   86  A    between atoms: _225  and  _227
REMARK   87  A    between atoms: _227  and  _228
REMARK   88  A    between atoms: _227  and  _230
REMARK   89  A    between atoms: _230  and  _231
REMARK   90  A    between atoms: _231  and  _232
REMARK   91  A    between atoms: _235  and  _237
REMARK   92  A    between atoms: _237  and  _238
REMARK   93  A    between atoms: _237  and  _240
REMARK   94  A    between atoms: _240  and  _241
REMARK   95  A    between atoms: _246  and  _248
REMARK   96  A    between atoms: _248  and  _249
REMARK   97  A    between atoms: _248  and  _251
REMARK   98  A    between atoms: _251  and  _252
REMARK   99  A    between atoms: _255  and  _257
REMARK  100  A    between atoms: _257  and  _258
REMARK  101  A    between atoms: _257  and  _260
REMARK  102  A    between atoms: _260  and  _261
REMARK  103  A    between atoms: _264  and  _266
REMARK  104  A    between atoms: _266  and  _267
REMARK  105  A    between atoms: _266  and  _269
REMARK  106  A    between atoms: _269  and  _270
REMARK  107  A    between atoms: _275  and  _277
REMARK  108  A    between atoms: _277  and  _278
REMARK  109  A    between atoms: _277  and  _280
REMARK  110  A    between atoms: _280  and  _281
REMARK  111  A    between atoms: _284  and  _286
REMARK  112  A    between atoms: _286  and  _287
REMARK  113  A    between atoms: _286  and  _289
REMARK  114  A    between atoms: _289  and  _290
REMARK  115  A    between atoms: _295  and  _297
REMARK  116  A    between atoms: _297  and  _298
REMARK  117  A    between atoms: _297  and  _300
REMARK  118  A    between atoms: _300  and  _301
REMARK  119  A    between atoms: _306  and  _308
REMARK  120  A    between atoms: _308  and  _309
REMARK  121  A    between atoms: _308  and  _311
REMARK  122  A    between atoms: _311  and  _312
REMARK  123  A    between atoms: _315  and  _317
REMARK  124  A    between atoms: _317  and  _318
REMARK  125  A    between atoms: _317  and  _320
REMARK  126  A    between atoms: _323  and  _325
REMARK  127  A    between atoms: _325  and  _326
REMARK  128  A    between atoms: _325  and  _328
REMARK  129  A    between atoms: _328  and  _329
REMARK  130  A    between atoms: _332  and  _334
REMARK  131  A    between atoms: _334  and  _335
REMARK  132  A    between atoms: _334  and  _337
REMARK  133  A    between atoms: _337  and  _338
REMARK  134  A    between atoms: _338  and  _339
REMARK  135  A    between atoms: _342  and  _344
REMARK  136  A    between atoms: _344  and  _345
REMARK  137  A    between atoms: _348  and  _350
REMARK  138  A    between atoms: _350  and  _351
REMARK  139  A    between atoms: _350  and  _353
REMARK  140  A    between atoms: _353  and  _354
REMARK  141  A    between atoms: _357  and  _359
REMARK  142  A    between atoms: _359  and  _360
REMARK  143  A    between atoms: _359  and  _362
REMARK  144  A    between atoms: _362  and  _363
REMARK  145  A    between atoms: _363  and  _364
REMARK  146  A    between atoms: _367  and  _369
REMARK  147  A    between atoms: _369  and  _370
REMARK  148  A    between atoms: _369  and  _372
REMARK  149  A    between atoms: _372  and  _373
REMARK  150  A    between atoms: _378  and  _380
REMARK  151  A    between atoms: _380  and  _381
REMARK  152  A    between atoms: _383  and  _385
REMARK  153  A    between atoms: _385  and  _386
REMARK  154  A    between atoms: _385  and  _388
REMARK  155  A    between atoms: _391  and  _393
REMARK  156  A    between atoms: _393  and  _394
REMARK  157  A    between atoms: _397  and  _399
REMARK  158  A    between atoms: _399  and  _400
REMARK  159  A    between atoms: _399  and  _402
REMARK  160  A    between atoms: _402  and  _403
REMARK  161  A    between atoms: _408  and  _410
REMARK  162  A    between atoms: _410  and  _411
REMARK  163  A    between atoms: _410  and  _413
REMARK  164  A    between atoms: _413  and  _414
REMARK  165  A    between atoms: _414  and  _415
REMARK  166  A    between atoms: _415  and  _416
REMARK  167  A    between atoms: _416  and  _417
REMARK  168  A    between atoms: _421  and  _423
REMARK  169  A    between atoms: _423  and  _424
REMARK  170  A    between atoms: _423  and  _426
REMARK  171  A    between atoms: _426  and  _427
REMARK  172  A    between atoms: _430  and  _432
REMARK  173  A    between atoms: _432  and  _433
REMARK  174  A    between atoms: _432  and  _435
REMARK  175  A    between atoms: _435  and  _436
REMARK  176  A    between atoms: _441  and  _443
REMARK  177  A    between atoms: _443  and  _444
REMARK  178  A    between atoms: _446  and  _448
REMARK  179  A    between atoms: _448  and  _449
REMARK  180  A    between atoms: _448  and  _451
REMARK  181  A    between atoms: _451  and  _452
REMARK  182  A    between atoms: _452  and  _453
REMARK  183  A    between atoms: _453  and  _454
REMARK  184  A    between atoms: _454  and  _455
REMARK  185  A    between atoms: _459  and  _461
REMARK  186  A    between atoms: _461  and  _462
REMARK  187  A    between atoms: _461  and  _464
REMARK  188  A    between atoms: _464  and  _465
REMARK  189  A    between atoms: _465  and  _466
REMARK  190  A    between atoms: _466  and  _467
REMARK  191  A    between atoms: _476  and  _478
REMARK  192  A    between atoms: _478  and  _479
REMARK  193  A    between atoms: _478  and  _481
REMARK  194  A    between atoms: _481  and  _482
REMARK  195  A    between atoms: _487  and  _488
REMARK  196  A    between atoms: _490  and  _492
REMARK  197  A    between atoms: _492  and  _493
REMARK  198  A    between atoms: _492  and  _495
REMARK  199  A    between atoms: _495  and  _496
REMARK  200  A    between atoms: _496  and  _497
REMARK  201  A    between atoms: _497  and  _498
REMARK  202  A    between atoms: _498  and  _499
REMARK  203  A    between atoms: _503  and  _505
REMARK  204  A    between atoms: _505  and  _506
REMARK  205  A    between atoms: _505  and  _508
REMARK  206  A    between atoms: _508  and  _509
REMARK  207  A    between atoms: _511  and  _513
REMARK  208  A    between atoms: _513  and  _514
REMARK  209  A    between atoms: _513  and  _516
REMARK  210  A    between atoms: _516  and  _517
REMARK  211  A    between atoms: _520  and  _522
REMARK  212  A    between atoms: _522  and  _523
REMARK  213  A    between atoms: _522  and  _525
REMARK  214  A    between atoms: _525  and  _526
REMARK  215  A    between atoms: _526  and  _527
REMARK  216  A    between atoms: _530  and  _532
REMARK  217  A    between atoms: _532  and  _533
REMARK  218  A    between atoms: _536  and  _538
REMARK  219  A    between atoms: _538  and  _539
REMARK  220  A    between atoms: _538  and  _541
REMARK  221  A    between atoms: _541  and  _542
REMARK  222  A    between atoms: _544  and  _546
REMARK  223  A    between atoms: _546  and  _547
REMARK  224  A    between atoms: _549  and  _551
REMARK  225  A    between atoms: _551  and  _552
REMARK  226  A    between atoms: _551  and  _554
REMARK  227  A    between atoms: _554  and  _555
REMARK  228  A    between atoms: _558  and  _560
REMARK  229  A    between atoms: _560  and  _561
REMARK  230  A    between atoms: _563  and  _565
REMARK  231  A    between atoms: _565  and  _566
REMARK  232  A    between atoms: _565  and  _568
REMARK  233  A    between atoms: _568  and  _569
REMARK  234  A    between atoms: _574  and  _576
REMARK  235  A    between atoms: _576  and  _577
REMARK  236  A    between atoms: _576  and  _579
REMARK  237  A    between atoms: _579  and  _580
REMARK  238  A    between atoms: _580  and  _581
REMARK  239  A    between atoms: _588  and  _589
REMARK  240  A    between atoms: _589  and  _605
REMARK  241  A    between atoms: _590  and  _592
REMARK  242  A    between atoms: _592  and  _593
REMARK  243  A    between atoms: _593  and  _594
REMARK  244  A    between atoms: _598  and  _600
REMARK  245  A    between atoms: _600  and  _601
REMARK  246  A    between atoms: _600  and  _608
REMARK  247  A    between atoms: _601  and  _602
REMARK  248  A    between atoms: _602  and  _603
REMARK  249  A    between atoms: _603  and  _604
REMARK  250  A    between atoms: _604  and  _605
REMARK  251  A    between atoms: _610  and  _612
REMARK  252  A    between atoms: _612  and  _613
REMARK  253  A    between atoms: _612  and  _615
REMARK  254  A    between atoms: _615  and  _616
REMARK  255  A    between atoms: _619  and  _621
REMARK  256  A    between atoms: _621  and  _622
REMARK  257  A    between atoms: _624  and  _626
REMARK  258  A    between atoms: _626  and  _627
REMARK  259  A    between atoms: _630  and  _632
REMARK  260  A    between atoms: _632  and  _633
REMARK  261  A    between atoms: _632  and  _635
REMARK  262  A    between atoms: _635  and  _636
REMARK  263  A    between atoms: _641  and  _642
REMARK                            x       y       z     vdW  Elec       q    Type
REMARK                         _______ _______ _______ _____ _____    ______ ____
ROOT
ATOM      1  CA  HIS A   3      37.939  19.839  27.412  0.00  0.00    +0.155 C 
ENDROOT
BRANCH   1   3
ATOM      2  C   ASN A   2      39.627  18.052  27.383  0.00  0.00    +0.241 C 
ATOM      3  N   HIS A   3      39.208  19.236  27.833  0.00  0.00    -0.297 N 
ATOM      4  H   HIS A   3      39.805  19.752  28.510  0.00  0.00    +0.150 HD
ATOM      5  O   ASN A   2      39.049  17.416  26.494  0.00  0.00    -0.273 OA
BRANCH   2   6
ATOM      6  CA  ASN A   2      40.894  17.492  28.015  0.00  0.00    +0.158 C 
BRANCH   6   9
ATOM      7  C   THR A   1      40.265  15.638  29.490  0.00  0.00    +0.241 C 
ATOM      8  O   THR A   1      40.097  16.371  30.467  0.00  0.00    -0.274 OA
ATOM      9  N   ASN A   2      40.704  16.073  28.312  0.00  0.00    -0.297 N 
ATOM     10  H   ASN A   2      40.921  15.375  27.572  0.00  0.00    +0.150 HD
BRANCH   7  11
ATOM     11  CA  THR A   1      39.980  14.147  29.594  0.00  0.00    +0.172 C 
BRANCH  11  12
ATOM     12  N   THR A   1      40.784  13.582  30.671  0.00  0.00    -0.236 NA
ATOM     13  H   THR A   1      40.536  13.803  31.657  0.00  0.00    +0.142 HD
ENDBRANCH  11  12
BRANCH  11  14
ATOM     14  CB  THR A   1      38.471  13.933  29.838  0.00  0.00    +0.135 C 
ATOM     15  CG2 THR A   1      37.652  14.489  28.674  0.00  0.00    +0.034 C 
BRANCH  14  16
ATOM     16  OG1 THR A   1      38.204  12.533  29.981  0.00  0.00    -0.383 OA
ATOM     17  HG1 THR A   1      38.475  12.060  29.155  0.00  0.00    +0.210 HD
ENDBRANCH  14  16
ENDBRANCH  11  14
ENDBRANCH   7  11
ENDBRANCH   6   9
BRANCH   6  18
ATOM     18  CB  ASN A   2      42.100  17.690  27.082  0.00  0.00    +0.114 C 
BRANCH  18  19
ATOM     19  CG  ASN A   2      42.190  19.107  26.528  0.00  0.00    +0.222 C 
ATOM     20  ND2 ASN A   2      43.023  19.938  27.148  0.00  0.00    -0.329 N 
ATOM     21 HD21 ASN A   2      43.573  19.608  27.967  0.00  0.00    +0.145 HD
ATOM     22 HD22 ASN A   2      43.124  20.918  26.814  0.00  0.00    +0.145 HD
ATOM     23  OD1 ASN A   2      41.518  19.446  25.558  0.00  0.00    -0.275 OA
ENDBRANCH  18  19
ENDBRANCH   6  18
ENDBRANCH   2   6
ENDBRANCH   1   3
BRANCH   1  24
ATOM     24  C   HIS A   3      38.080  21.167  26.657  0.00  0.00    +0.241 C 
ATOM     25  N   THR A   4      39.308  21.645  26.461  0.00  0.00    -0.295 N 
ATOM     26  H   THR A   4      40.132  21.087  26.764  0.00  0.00    +0.150 HD
ATOM     27  O   HIS A   3      37.079  21.757  26.260  0.00  0.00    -0.273 OA
BRANCH  25  28
ATOM     28  CA  THR A   4      39.509  22.951  25.822  0.00  0.00    +0.176 C 
BRANCH  28  29
ATOM     29  C   THR A   4      40.935  23.153  25.320  0.00  0.00    +0.243 C 
ATOM     30  O   THR A   4      41.879  22.607  25.889  0.00  0.00    -0.273 OA
ATOM     31  N   VAL A   5      41.075  23.934  24.250  0.00  0.00    -0.297 N 
ATOM     32  H   VAL A   5      40.225  24.309  23.783  0.00  0.00    +0.150 HD
BRANCH  31  33
ATOM     33  CA  VAL A   5      42.396  24.281  23.711  0.00  0.00    +0.149 C 
BRANCH  33  34
ATOM     34  C   VAL A   5      42.706  25.767  23.867  0.00  0.00    +0.241 C 
ATOM     35  N   LEU A   6      41.753  26.527  24.403  0.00  0.00    -0.298 N 
ATOM     36  H   LEU A   6      40.848  26.092  24.675  0.00  0.00    +0.150 HD
ATOM     37  O   VAL A   5      43.791  26.216  23.494  0.00  0.00    -0.273 OA
BRANCH  35  38
ATOM     38  CA  LEU A   6      41.950  27.958  24.618  0.00  0.00    +0.137 C 
BRANCH  38  39
ATOM     39  C   LEU A   6      43.059  28.177  25.642  0.00  0.00    +0.227 C 
ATOM     40  O   LEU A   6      42.968  27.675  26.762  0.00  0.00    -0.286 OA
ENDBRANCH  38  39
BRANCH  38  41
ATOM     41  CB  LEU A   6      40.652  28.629  25.078  0.00  0.00    +0.028 C 
BRANCH  41  42
ATOM     42  CG  LEU A   6      39.445  28.550  24.136  0.00  0.00    +0.002 C 
ATOM     43  CD2 LEU A   6      38.177  28.899  24.890  0.00  0.00    +0.000 C 
ATOM     44  CD1 LEU A   6      39.623  29.452  22.918  0.00  0.00    +0.000 C 
ENDBRANCH  41  42
ENDBRANCH  38  41
ENDBRANCH  35  38
ENDBRANCH  33  34
BRANCH  33  45
ATOM     45  CB  VAL A   5      42.567  23.877  22.212  0.00  0.00    +0.027 C 
ATOM     46  CG2 VAL A   5      42.305  22.387  22.010  0.00  0.00    +0.002 C 
ATOM     47  CG1 VAL A   5      41.675  24.735  21.304  0.00  0.00    +0.002 C 
ENDBRANCH  33  45
ENDBRANCH  31  33
ENDBRANCH  28  29
BRANCH  28  48
ATOM     48  CB  THR A   4      39.093  24.125  26.761  0.00  0.00    +0.137 C 
ATOM     49  CG2 THR A   4      39.953  24.171  28.030  0.00  0.00    +0.034 C 
BRANCH  48  50
ATOM     50  OG1 THR A   4      39.172  25.372  26.056  0.00  0.00    -0.382 OA
ATOM     51  HG1 THR A   4      38.906  26.109  26.661  0.00  0.00    +0.210 HD
ENDBRANCH  48  50
ENDBRANCH  28  48
ENDBRANCH  25  28
ENDBRANCH   1  24
BRANCH   1  52
ATOM     52  CB  HIS A   3      37.020  20.058  28.624  0.00  0.00    +0.076 C 
BRANCH  52  53
ATOM     53  CG  HIS A   3      36.576  18.796  29.297  0.00  0.00    +0.082 A 
ATOM     54  CD2 HIS A   3      37.145  18.066  30.286  0.00  0.00    +0.115 A 
ATOM     55  NE2 HIS A   3      36.310  17.004  30.538  0.00  0.00    -0.221 NA
ATOM     56  CE1 HIS A   3      35.263  17.082  29.734  0.00  0.00    +0.199 A 
ATOM     57  ND1 HIS A   3      35.397  18.157  28.978  0.00  0.00    -0.227 NA
ENDBRANCH  52  53
ENDBRANCH   1  52
TORSDOF 23
REMARK  Name = ../refined-set-2016/2qrg/2qrg_pocket.pdb
REMARK  263 active torsions:
REMARK  status: ('A' for Active; 'I' for Inactive)
REMARK    1  A    between atoms: _1  and  _3
REMARK    2  A    between atoms: _3  and  _4
REMARK    3  A    between atoms: _3  and  _6
REMARK    4  A    between atoms: _6  and  _7
REMARK    5  A    between atoms: _12  and  _13
REMARK    6  A    between atoms: _15  and  _17
REMARK    7  A    between atoms: _17  and  _18
REMARK    8  A    between atoms: _17  and  _20
REMARK    9  A    between atoms: _20  and  _21
REMARK   10  A    between atoms: _24  and  _26
REMARK   11  A    between atoms: _26  and  _27
REMARK   12  A    between atoms: _26  and  _29
REMARK   13  A    between atoms: _29  and  _30
REMARK   14  A    between atoms: _30  and  _31
REMARK   15  A    between atoms: _34  and  _36
REMARK   16  A    between atoms: _36  and  _37
REMARK   17  A    between atoms: _36  and  _39
REMARK   18  A    between atoms: _39  and  _40
REMARK   19  A    between atoms: _45  and  _47
REMARK   20  A    between atoms: _47  and  _48
REMARK   21  A    between atoms: _50  and  _52
REMARK   22  A    between atoms: _52  and  _53
REMARK   23  A    between atoms: _55  and  _57
REMARK   24  A    between atoms: _57  and  _58
REMARK   25  A    between atoms: _57  and  _60
REMARK   26  A    between atoms: _60  and  _61
REMARK   27  A    between atoms: _64  and  _66
REMARK   28  A    between atoms: _66  and  _67
REMARK   29  A    between atoms: _69  and  _71
REMARK   30  A    between atoms: _71  and  _72
REMARK   31  A    between atoms: _71  and  _74
REMARK   32  A    between atoms: _74  and  _75
REMARK   33  A    between atoms: _75  and  _76
REMARK   34  A    between atoms: _76  and  _77
REMARK   35  A    between atoms: _86  and  _88
REMARK   36  A    between atoms: _88  and  _89
REMARK   37  A    between atoms: _88  and  _91
REMARK   38  A    between atoms: _91  and  _92
REMARK   39  A    between atoms: _95  and  _97
REMARK   40  A    between atoms: _97  and  _98
REMARK   41  A    between atoms: _101  and  _103
REMARK   42  A    between atoms: _103  and  _104
REMARK   43  A    between atoms: _103  and  _106
REMARK   44  A    between atoms: _106  and  _107
REMARK   45  A    between atoms: _113  and  _115
REMARK   46  A    between atoms: _115  and  _116
REMARK   47  A    between atoms: _115  and  _118
REMARK   48  A    between atoms: _118  and  _119
REMARK   49  A    between atoms: _122  and  _124
REMARK   50  A    between atoms: _124  and  _125
REMARK   51  A    between atoms: _124  and  _127
REMARK   52  A    between atoms: _127  and  _128
REMARK   53  A    between atoms: _133  and  _134
REMARK   54  A    between atoms: _137  and  _138
REMARK   55  A    between atoms: _143  and  _145
REMARK   56  A    between atoms: _145  and  _146
REMARK   57  A    between atoms: _145  and  _148
REMARK   58  A    between atoms: _148  and  _149
REMARK   59  A    between atoms: _154  and  _156
REMARK   60  A    between atoms: _156  and  _157
REMARK   61  A    between atoms: _156  and  _159
REMARK   62  A    between atoms: _159  and  _160
REMARK   63  A    between atoms: _163  and  _165
REMARK   64  A    between atoms: _165  and  _166
REMARK   65  A    between atoms: _165  and  _168
REMARK   66  A    between atoms: _168  and  _169
REMARK   67  A    between atoms: _174  and  _176
REMARK   68  A    between atoms: _176  and  _177
REMARK   69  A    between atoms: _176  and  _179
REMARK   70  A    between atoms: _179  and  _180
REMARK   71  A    between atoms: _186  and  _188
REMARK   72  A    between atoms: _188  and  _189
REMARK   73  A    between atoms: _188  and  _191
REMARK   74  A    between atoms: _191  and  _192
REMARK   75  A    between atoms: _198  and  _200
REMARK   76  A    between atoms: _200  and  _201
REMARK   77  A    between atoms: _200  and  _203
REMARK   78  A    between atoms: _203  and  _204
REMARK   79  A    between atoms: _204  and  _205
REMARK   80  A    between atoms: _208  and  _210
REMARK   81  A    between atoms: _210  and  _211
REMARK   82  A    between atoms: _210  and  _213
REMARK   83  A    between atoms: _213  and  _214
REMARK   84  A    between atoms: _214  and  _215
REMARK   85  A    between atoms: _215  and  _216
REMARK   86  A    between atoms: _225  and  _227
REMARK   87  A    between atoms: _227  and  _228
REMARK   88  A    between atoms: _227  and  _230
REMARK   89  A    between atoms: _230  and  _231
REMARK   90  A    between atoms: _231  and  _232
REMARK   91  A    between atoms: _235  and  _237
REMARK   92  A    between atoms: _237  and  _238
REMARK   93  A    between atoms: _237  and  _240
REMARK   94  A    between atoms: _240  and  _241
REMARK   95  A    between atoms: _246  and  _248
REMARK   96  A    between atoms: _248  and  _249
REMARK   97  A    between atoms: _248  and  _251
REMARK   98  A    between atoms: _251  and  _252
REMARK   99  A    between atoms: _255  and  _257
REMARK  100  A    between atoms: _257  and  _258
REMARK  101  A    between atoms: _257  and  _260
REMARK  102  A    between atoms: _260  and  _261
REMARK  103  A    between atoms: _264  and  _266
REMARK  104  A    between atoms: _266  and  _267
REMARK  105  A    between atoms: _266  and  _269
REMARK  106  A    between atoms: _269  and  _270
REMARK  107  A    between atoms: _275  and  _277
REMARK  108  A    between atoms: _277  and  _278
REMARK  109  A    between atoms: _277  and  _280
REMARK  110  A    between atoms: _280  and  _281
REMARK  111  A    between atoms: _284  and  _286
REMARK  112  A    between atoms: _286  and  _287
REMARK  113  A    between atoms: _286  and  _289
REMARK  114  A    between atoms: _289  and  _290
REMARK  115  A    between atoms: _295  and  _297
REMARK  116  A    between atoms: _297  and  _298
REMARK  117  A    between atoms: _297  and  _300
REMARK  118  A    between atoms: _300  and  _301
REMARK  119  A    between atoms: _306  and  _308
REMARK  120  A    between atoms: _308  and  _309
REMARK  121  A    between atoms: _308  and  _311
REMARK  122  A    between atoms: _311  and  _312
REMARK  123  A    between atoms: _315  and  _317
REMARK  124  A    between atoms: _317  and  _318
REMARK  125  A    between atoms: _317  and  _320
REMARK  126  A    between atoms: _323  and  _325
REMARK  127  A    between atoms: _325  and  _326
REMARK  128  A    between atoms: _325  and  _328
REMARK  129  A    between atoms: _328  and  _329
REMARK  130  A    between atoms: _332  and  _334
REMARK  131  A    between atoms: _334  and  _335
REMARK  132  A    between atoms: _334  and  _337
REMARK  133  A    between atoms: _337  and  _338
REMARK  134  A    between atoms: _338  and  _339
REMARK  135  A    between atoms: _342  and  _344
REMARK  136  A    between atoms: _344  and  _345
REMARK  137  A    between atoms: _348  and  _350
REMARK  138  A    between atoms: _350  and  _351
REMARK  139  A    between atoms: _350  and  _353
REMARK  140  A    between atoms: _353  and  _354
REMARK  141  A    between atoms: _357  and  _359
REMARK  142  A    between atoms: _359  and  _360
REMARK  143  A    between atoms: _359  and  _362
REMARK  144  A    between atoms: _362  and  _363
REMARK  145  A    between atoms: _363  and  _364
REMARK  146  A    between atoms: _367  and  _369
REMARK  147  A    between atoms: _369  and  _370
REMARK  148  A    between atoms: _369  and  _372
REMARK  149  A    between atoms: _372  and  _373
REMARK  150  A    between atoms: _378  and  _380
REMARK  151  A    between atoms: _380  and  _381
REMARK  152  A    between atoms: _383  and  _385
REMARK  153  A    between atoms: _385  and  _386
REMARK  154  A    between atoms: _385  and  _388
REMARK  155  A    between atoms: _391  and  _393
REMARK  156  A    between atoms: _393  and  _394
REMARK  157  A    between atoms: _397  and  _399
REMARK  158  A    between atoms: _399  and  _400
REMARK  159  A    between atoms: _399  and  _402
REMARK  160  A    between atoms: _402  and  _403
REMARK  161  A    between atoms: _408  and  _410
REMARK  162  A    between atoms: _410  and  _411
REMARK  163  A    between atoms: _410  and  _413
REMARK  164  A    between atoms: _413  and  _414
REMARK  165  A    between atoms: _414  and  _415
REMARK  166  A    between atoms: _415  and  _416
REMARK  167  A    between atoms: _416  and  _417
REMARK  168  A    between atoms: _421  and  _423
REMARK  169  A    between atoms: _423  and  _424
REMARK  170  A    between atoms: _423  and  _426
REMARK  171  A    between atoms: _426  and  _427
REMARK  172  A    between atoms: _430  and  _432
REMARK  173  A    between atoms: _432  and  _433
REMARK  174  A    between atoms: _432  and  _435
REMARK  175  A    between atoms: _435  and  _436
REMARK  176  A    between atoms: _441  and  _443
REMARK  177  A    between atoms: _443  and  _444
REMARK  178  A    between atoms: _446  and  _448
REMARK  179  A    between atoms: _448  and  _449
REMARK  180  A    between atoms: _448  and  _451
REMARK  181  A    between atoms: _451  and  _452
REMARK  182  A    between atoms: _452  and  _453
REMARK  183  A    between atoms: _453  and  _454
REMARK  184  A    between atoms: _454  and  _455
REMARK  185  A    between atoms: _459  and  _461
REMARK  186  A    between atoms: _461  and  _462
REMARK  187  A    between atoms: _461  and  _464
REMARK  188  A    between atoms: _464  and  _465
REMARK  189  A    between atoms: _465  and  _466
REMARK  190  A    between atoms: _466  and  _467
REMARK  191  A    between atoms: _476  and  _478
REMARK  192  A    between atoms: _478  and  _479
REMARK  193  A    between atoms: _478  and  _481
REMARK  194  A    between atoms: _481  and  _482
REMARK  195  A    between atoms: _487  and  _488
REMARK  196  A    between atoms: _490  and  _492
REMARK  197  A    between atoms: _492  and  _493
REMARK  198  A    between atoms: _492  and  _495
REMARK  199  A    between atoms: _495  and  _496
REMARK  200  A    between atoms: _496  and  _497
REMARK  201  A    between atoms: _497  and  _498
REMARK  202  A    between atoms: _498  and  _499
REMARK  203  A    between atoms: _503  and  _505
REMARK  204  A    between atoms: _505  and  _506
REMARK  205  A    between atoms: _505  and  _508
REMARK  206  A    between atoms: _508  and  _509
REMARK  207  A    between atoms: _511  and  _513
REMARK  208  A    between atoms: _513  and  _514
REMARK  209  A    between atoms: _513  and  _516
REMARK  210  A    between atoms: _516  and  _517
REMARK  211  A    between atoms: _520  and  _522
REMARK  212  A    between atoms: _522  and  _523
REMARK  213  A    between atoms: _522  and  _525
REMARK  214  A    between atoms: _525  and  _526
REMARK  215  A    between atoms: _526  and  _527
REMARK  216  A    between atoms: _530  and  _532
REMARK  217  A    between atoms: _532  and  _533
REMARK  218  A    between atoms: _536  and  _538
REMARK  219  A    between atoms: _538  and  _539
REMARK  220  A    between atoms: _538  and  _541
REMARK  221  A    between atoms: _541  and  _542
REMARK  222  A    between atoms: _544  and  _546
REMARK  223  A    between atoms: _546  and  _547
REMARK  224  A    between atoms: _549  and  _551
REMARK  225  A    between atoms: _551  and  _552
REMARK  226  A    between atoms: _551  and  _554
REMARK  227  A    between atoms: _554  and  _555
REMARK  228  A    between atoms: _558  and  _560
REMARK  229  A    between atoms: _560  and  _561
REMARK  230  A    between atoms: _563  and  _565
REMARK  231  A    between atoms: _565  and  _566
REMARK  232  A    between atoms: _565  and  _568
REMARK  233  A    between atoms: _568  and  _569
REMARK  234  A    between atoms: _574  and  _576
REMARK  235  A    between atoms: _576  and  _577
REMARK  236  A    between atoms: _576  and  _579
REMARK  237  A    between atoms: _579  and  _580
REMARK  238  A    between atoms: _580  and  _581
REMARK  239  A    between atoms: _588  and  _589
REMARK  240  A    between atoms: _589  and  _605
REMARK  241  A    between atoms: _590  and  _592
REMARK  242  A    between atoms: _592  and  _593
REMARK  243  A    between atoms: _593  and  _594
REMARK  244  A    between atoms: _598  and  _600
REMARK  245  A    between atoms: _600  and  _601
REMARK  246  A    between atoms: _600  and  _608
REMARK  247  A    between atoms: _601  and  _602
REMARK  248  A    between atoms: _602  and  _603
REMARK  249  A    between atoms: _603  and  _604
REMARK  250  A    between atoms: _604  and  _605
REMARK  251  A    between atoms: _610  and  _612
REMARK  252  A    between atoms: _612  and  _613
REMARK  253  A    between atoms: _612  and  _615
REMARK  254  A    between atoms: _615  and  _616
REMARK  255  A    between atoms: _619  and  _621
REMARK  256  A    between atoms: _621  and  _622
REMARK  257  A    between atoms: _624  and  _626
REMARK  258  A    between atoms: _626  and  _627
REMARK  259  A    between atoms: _630  and  _632
REMARK  260  A    between atoms: _632  and  _633
REMARK  261  A    between atoms: _632  and  _635
REMARK  262  A    between atoms: _635  and  _636
REMARK  263  A    between atoms: _641  and  _642
REMARK                            x       y       z     vdW  Elec       q    Type
REMARK                         _______ _______ _______ _____ _____    ______ ____
ROOT
ATOM      1  C   ALA A   2      42.646  27.121  30.733  0.00  0.00    +0.241 C 
ATOM      2  O   ALA A   2      42.216  26.378  31.620  0.00  0.00    -0.273 OA
ATOM      3  N   LEU A   3      43.883  27.030  30.252  0.00  0.00    -0.297 N 
ATOM      4  H   LEU A   3      44.206  27.724  29.548  0.00  0.00    +0.150 HD
ENDROOT
BRANCH   1   5
ATOM      5  CA  ALA A   2      41.755  28.208  30.128  0.00  0.00    +0.149 C 
ATOM      6  CB  ALA A   2      40.640  27.577  29.298  0.00  0.00    +0.031 C 
BRANCH   5   9
ATOM      7  C   GLU A   1      42.932  30.333  29.804  0.00  0.00    +0.238 C 
ATOM      8  O   GLU A   1      42.722  30.692  30.963  0.00  0.00    -0.274 OA
ATOM      9  N   ALA A   2      42.509  29.167  29.317  0.00  0.00    -0.297 N 
ATOM     10  H   ALA A   2      42.721  28.930  28.327  0.00  0.00    +0.150 HD
BRANCH   7  11
ATOM     11  CA  GLU A   1      43.716  31.240  28.842  0.00  0.00    +0.145 C 
BRANCH  11  12
ATOM     12  N   GLU A   1      44.057  30.598  27.572  0.00  0.00    -0.238 NA
ATOM     13  H   GLU A   1      43.544  30.878  26.712  0.00  0.00    +0.142 HD
ENDBRANCH  11  12
BRANCH  11  14
ATOM     14  CB  GLU A   1      42.959  32.555  28.606  0.00  0.00    +0.038 C 
BRANCH  14  15
ATOM     15  CG  GLU A   1      41.578  32.405  27.971  0.00  0.00    +0.116 C 
BRANCH  15  16
ATOM     16  CD  GLU A   1      41.578  32.556  26.452  0.00  0.00    +0.365 C 
ATOM     17  OE2 GLU A   1      40.558  33.042  25.920  0.00  0.00    -0.246 OA
ATOM     18  OE1 GLU A   1      42.575  32.188  25.789  0.00  0.00    -0.246 OA
ENDBRANCH  15  16
ENDBRANCH  14  15
ENDBRANCH  11  14
ENDBRANCH   7  11
ENDBRANCH   5   9
ENDBRANCH   1   5
BRANCH   3  19
ATOM     19  CA  LEU A   3      44.798  25.978  30.690  0.00  0.00    +0.149 C 
BRANCH  19  20
ATOM     20  C   LEU A   3      45.449  26.310  32.032  0.00  0.00    +0.241 C 
ATOM     21  N   GLU A   4      45.463  25.331  32.935  0.00  0.00    -0.298 N 
ATOM     22  H   GLU A   4      45.095  24.394  32.672  0.00  0.00    +0.150 HD
ATOM     23  O   LEU A   3      45.918  27.429  32.245  0.00  0.00    -0.273 OA
BRANCH  21  24
ATOM     24  CA  GLU A   4      45.981  25.538  34.284  0.00  0.00    +0.137 C 
BRANCH  24  25
ATOM     25  C   GLU A   4      47.496  25.477  34.329  0.00  0.00    +0.227 C 
ATOM     26  O   GLU A   4      48.096  24.448  34.027  0.00  0.00    -0.286 OA
ENDBRANCH  24  25
BRANCH  24  27
ATOM     27  CB  GLU A   4      45.405  24.513  35.258  0.00  0.00    +0.039 C 
BRANCH  27  28
ATOM     28  CG  GLU A   4      43.914  24.645  35.485  0.00  0.00    +0.116 C 
BRANCH  28  29
ATOM     29  CD  GLU A   4      43.472  23.892  36.713  0.00  0.00    +0.365 C 
ATOM     30  OE2 GLU A   4      43.029  24.549  37.674  0.00  0.00    -0.246 OA
ATOM     31  OE1 GLU A   4      43.581  22.648  36.721  0.00  0.00    -0.246 OA
ENDBRANCH  28  29
ENDBRANCH  27  28
ENDBRANCH  24  27
ENDBRANCH  21  24
ENDBRANCH  19  20
BRANCH  19  32
ATOM     32  CB  LEU A   3      45.856  25.700  29.614  0.00  0.00    +0.029 C 
BRANCH  32  33
ATOM     33  CG  LEU A   3      45.354  25.242  28.236  0.00  0.00    +0.002 C 
ATOM     34  CD2 LEU A   3      44.489  23.977  28.303  0.00  0.00    +0.000 C 
ATOM     35  CD1 LEU A   3      46.535  25.029  27.298  0.00  0.00    +0.000 C 
ENDBRANCH  32  33
ENDBRANCH  19  32
ENDBRANCH   3  19
TORSDOF 16
REMARK  Name = ../refined-set-2016/2qrg/2qrg_pocket.pdb
REMARK  263 active torsions:
REMARK  status: ('A' for Active; 'I' for Inactive)
REMARK    1  A    between atoms: _1  and  _3
REMARK    2  A    between atoms: _3  and  _4
REMARK    3  A    between atoms: _3  and  _6
REMARK    4  A    between atoms: _6  and  _7
REMARK    5  A    between atoms: _12  and  _13
REMARK    6  A    between atoms: _15  and  _17
REMARK    7  A    between atoms: _17  and  _18
REMARK    8  A    between atoms: _17  and  _20
REMARK    9  A    between atoms: _20  and  _21
REMARK   10  A    between atoms: _24  and  _26
REMARK   11  A    between atoms: _26  and  _27
REMARK   12  A    between atoms: _26  and  _29
REMARK   13  A    between atoms: _29  and  _30
REMARK   14  A    between atoms: _30  and  _31
REMARK   15  A    between atoms: _34  and  _36
REMARK   16  A    between atoms: _36  and  _37
REMARK   17  A    between atoms: _36  and  _39
REMARK   18  A    between atoms: _39  and  _40
REMARK   19  A    between atoms: _45  and  _47
REMARK   20  A    between atoms: _47  and  _48
REMARK   21  A    between atoms: _50  and  _52
REMARK   22  A    between atoms: _52  and  _53
REMARK   23  A    between atoms: _55  and  _57
REMARK   24  A    between atoms: _57  and  _58
REMARK   25  A    between atoms: _57  and  _60
REMARK   26  A    between atoms: _60  and  _61
REMARK   27  A    between atoms: _64  and  _66
REMARK   28  A    between atoms: _66  and  _67
REMARK   29  A    between atoms: _69  and  _71
REMARK   30  A    between atoms: _71  and  _72
REMARK   31  A    between atoms: _71  and  _74
REMARK   32  A    between atoms: _74  and  _75
REMARK   33  A    between atoms: _75  and  _76
REMARK   34  A    between atoms: _76  and  _77
REMARK   35  A    between atoms: _86  and  _88
REMARK   36  A    between atoms: _88  and  _89
REMARK   37  A    between atoms: _88  and  _91
REMARK   38  A    between atoms: _91  and  _92
REMARK   39  A    between atoms: _95  and  _97
REMARK   40  A    between atoms: _97  and  _98
REMARK   41  A    between atoms: _101  and  _103
REMARK   42  A    between atoms: _103  and  _104
REMARK   43  A    between atoms: _103  and  _106
REMARK   44  A    between atoms: _106  and  _107
REMARK   45  A    between atoms: _113  and  _115
REMARK   46  A    between atoms: _115  and  _116
REMARK   47  A    between atoms: _115  and  _118
REMARK   48  A    between atoms: _118  and  _119
REMARK   49  A    between atoms: _122  and  _124
REMARK   50  A    between atoms: _124  and  _125
REMARK   51  A    between atoms: _124  and  _127
REMARK   52  A    between atoms: _127  and  _128
REMARK   53  A    between atoms: _133  and  _134
REMARK   54  A    between atoms: _137  and  _138
REMARK   55  A    between atoms: _143  and  _145
REMARK   56  A    between atoms: _145  and  _146
REMARK   57  A    between atoms: _145  and  _148
REMARK   58  A    between atoms: _148  and  _149
REMARK   59  A    between atoms: _154  and  _156
REMARK   60  A    between atoms: _156  and  _157
REMARK   61  A    between atoms: _156  and  _159
REMARK   62  A    between atoms: _159  and  _160
REMARK   63  A    between atoms: _163  and  _165
REMARK   64  A    between atoms: _165  and  _166
REMARK   65  A    between atoms: _165  and  _168
REMARK   66  A    between atoms: _168  and  _169
REMARK   67  A    between atoms: _174  and  _176
REMARK   68  A    between atoms: _176  and  _177
REMARK   69  A    between atoms: _176  and  _179
REMARK   70  A    between atoms: _179  and  _180
REMARK   71  A    between atoms: _186  and  _188
REMARK   72  A    between atoms: _188  and  _189
REMARK   73  A    between atoms: _188  and  _191
REMARK   74  A    between atoms: _191  and  _192
REMARK   75  A    between atoms: _198  and  _200
REMARK   76  A    between atoms: _200  and  _201
REMARK   77  A    between atoms: _200  and  _203
REMARK   78  A    between atoms: _203  and  _204
REMARK   79  A    between atoms: _204  and  _205
REMARK   80  A    between atoms: _208  and  _210
REMARK   81  A    between atoms: _210  and  _211
REMARK   82  A    between atoms: _210  and  _213
REMARK   83  A    between atoms: _213  and  _214
REMARK   84  A    between atoms: _214  and  _215
REMARK   85  A    between atoms: _215  and  _216
REMARK   86  A    between atoms: _225  and  _227
REMARK   87  A    between atoms: _227  and  _228
REMARK   88  A    between atoms: _227  and  _230
REMARK   89  A    between atoms: _230  and  _231
REMARK   90  A    between atoms: _231  and  _232
REMARK   91  A    between atoms: _235  and  _237
REMARK   92  A    between atoms: _237  and  _238
REMARK   93  A    between atoms: _237  and  _240
REMARK   94  A    between atoms: _240  and  _241
REMARK   95  A    between atoms: _246  and  _248
REMARK   96  A    between atoms: _248  and  _249
REMARK   97  A    between atoms: _248  and  _251
REMARK   98  A    between atoms: _251  and  _252
REMARK   99  A    between atoms: _255  and  _257
REMARK  100  A    between atoms: _257  and  _258
REMARK  101  A    between atoms: _257  and  _260
REMARK  102  A    between atoms: _260  and  _261
REMARK  103  A    between atoms: _264  and  _266
REMARK  104  A    between atoms: _266  and  _267
REMARK  105  A    between atoms: _266  and  _269
REMARK  106  A    between atoms: _269  and  _270
REMARK  107  A    between atoms: _275  and  _277
REMARK  108  A    between atoms: _277  and  _278
REMARK  109  A    between atoms: _277  and  _280
REMARK  110  A    between atoms: _280  and  _281
REMARK  111  A    between atoms: _284  and  _286
REMARK  112  A    between atoms: _286  and  _287
REMARK  113  A    between atoms: _286  and  _289
REMARK  114  A    between atoms: _289  and  _290
REMARK  115  A    between atoms: _295  and  _297
REMARK  116  A    between atoms: _297  and  _298
REMARK  117  A    between atoms: _297  and  _300
REMARK  118  A    between atoms: _300  and  _301
REMARK  119  A    between atoms: _306  and  _308
REMARK  120  A    between atoms: _308  and  _309
REMARK  121  A    between atoms: _308  and  _311
REMARK  122  A    between atoms: _311  and  _312
REMARK  123  A    between atoms: _315  and  _317
REMARK  124  A    between atoms: _317  and  _318
REMARK  125  A    between atoms: _317  and  _320
REMARK  126  A    between atoms: _323  and  _325
REMARK  127  A    between atoms: _325  and  _326
REMARK  128  A    between atoms: _325  and  _328
REMARK  129  A    between atoms: _328  and  _329
REMARK  130  A    between atoms: _332  and  _334
REMARK  131  A    between atoms: _334  and  _335
REMARK  132  A    between atoms: _334  and  _337
REMARK  133  A    between atoms: _337  and  _338
REMARK  134  A    between atoms: _338  and  _339
REMARK  135  A    between atoms: _342  and  _344
REMARK  136  A    between atoms: _344  and  _345
REMARK  137  A    between atoms: _348  and  _350
REMARK  138  A    between atoms: _350  and  _351
REMARK  139  A    between atoms: _350  and  _353
REMARK  140  A    between atoms: _353  and  _354
REMARK  141  A    between atoms: _357  and  _359
REMARK  142  A    between atoms: _359  and  _360
REMARK  143  A    between atoms: _359  and  _362
REMARK  144  A    between atoms: _362  and  _363
REMARK  145  A    between atoms: _363  and  _364
REMARK  146  A    between atoms: _367  and  _369
REMARK  147  A    between atoms: _369  and  _370
REMARK  148  A    between atoms: _369  and  _372
REMARK  149  A    between atoms: _372  and  _373
REMARK  150  A    between atoms: _378  and  _380
REMARK  151  A    between atoms: _380  and  _381
REMARK  152  A    between atoms: _383  and  _385
REMARK  153  A    between atoms: _385  and  _386
REMARK  154  A    between atoms: _385  and  _388
REMARK  155  A    between atoms: _391  and  _393
REMARK  156  A    between atoms: _393  and  _394
REMARK  157  A    between atoms: _397  and  _399
REMARK  158  A    between atoms: _399  and  _400
REMARK  159  A    between atoms: _399  and  _402
REMARK  160  A    between atoms: _402  and  _403
REMARK  161  A    between atoms: _408  and  _410
REMARK  162  A    between atoms: _410  and  _411
REMARK  163  A    between atoms: _410  and  _413
REMARK  164  A    between atoms: _413  and  _414
REMARK  165  A    between atoms: _414  and  _415
REMARK  166  A    between atoms: _415  and  _416
REMARK  167  A    between atoms: _416  and  _417
REMARK  168  A    between atoms: _421  and  _423
REMARK  169  A    between atoms: _423  and  _424
REMARK  170  A    between atoms: _423  and  _426
REMARK  171  A    between atoms: _426  and  _427
REMARK  172  A    between atoms: _430  and  _432
REMARK  173  A    between atoms: _432  and  _433
REMARK  174  A    between atoms: _432  and  _435
REMARK  175  A    between atoms: _435  and  _436
REMARK  176  A    between atoms: _441  and  _443
REMARK  177  A    between atoms: _443  and  _444
REMARK  178  A    between atoms: _446  and  _448
REMARK  179  A    between atoms: _448  and  _449
REMARK  180  A    between atoms: _448  and  _451
REMARK  181  A    between atoms: _451  and  _452
REMARK  182  A    between atoms: _452  and  _453
REMARK  183  A    between atoms: _453  and  _454
REMARK  184  A    between atoms: _454  and  _455
REMARK  185  A    between atoms: _459  and  _461
REMARK  186  A    between atoms: _461  and  _462
REMARK  187  A    between atoms: _461  and  _464
REMARK  188  A    between atoms: _464  and  _465
REMARK  189  A    between atoms: _465  and  _466
REMARK  190  A    between atoms: _466  and  _467
REMARK  191  A    between atoms: _476  and  _478
REMARK  192  A    between atoms: _478  and  _479
REMARK  193  A    between atoms: _478  and  _481
REMARK  194  A    between atoms: _481  and  _482
REMARK  195  A    between atoms: _487  and  _488
REMARK  196  A    between atoms: _490  and  _492
REMARK  197  A    between atoms: _492  and  _493
REMARK  198  A    between atoms: _492  and  _495
REMARK  199  A    between atoms: _495  and  _496
REMARK  200  A    between atoms: _496  and  _497
REMARK  201  A    between atoms: _497  and  _498
REMARK  202  A    between atoms: _498  and  _499
REMARK  203  A    between atoms: _503  and  _505
REMARK  204  A    between atoms: _505  and  _506
REMARK  205  A    between atoms: _505  and  _508
REMARK  206  A    between atoms: _508  and  _509
REMARK  207  A    between atoms: _511  and  _513
REMARK  208  A    between atoms: _513  and  _514
REMARK  209  A    between atoms: _513  and  _516
REMARK  210  A    between atoms: _516  and  _517
REMARK  211  A    between atoms: _520  and  _522
REMARK  212  A    between atoms: _522  and  _523
REMARK  213  A    between atoms: _522  and  _525
REMARK  214  A    between atoms: _525  and  _526
REMARK  215  A    between atoms: _526  and  _527
REMARK  216  A    between atoms: _530  and  _532
REMARK  217  A    between atoms: _532  and  _533
REMARK  218  A    between atoms: _536  and  _538
REMARK  219  A    between atoms: _538  and  _539
REMARK  220  A    between atoms: _538  and  _541
REMARK  221  A    between atoms: _541  and  _542
REMARK  222  A    between atoms: _544  and  _546
REMARK  223  A    between atoms: _546  and  _547
REMARK  224  A    between atoms: _549  and  _551
REMARK  225  A    between atoms: _551  and  _552
REMARK  226  A    between atoms: _551  and  _554
REMARK  227  A    between atoms: _554  and  _555
REMARK  228  A    between atoms: _558  and  _560
REMARK  229  A    between atoms: _560  and  _561
REMARK  230  A    between atoms: _563  and  _565
REMARK  231  A    between atoms: _565  and  _566
REMARK  232  A    between atoms: _565  and  _568
REMARK  233  A    between atoms: _568  and  _569
REMARK  234  A    between atoms: _574  and  _576
REMARK  235  A    between atoms: _576  and  _577
REMARK  236  A    between atoms: _576  and  _579
REMARK  237  A    between atoms: _579  and  _580
REMARK  238  A    between atoms: _580  and  _581
REMARK  239  A    between atoms: _588  and  _589
REMARK  240  A    between atoms: _589  and  _605
REMARK  241  A    between atoms: _590  and  _592
REMARK  242  A    between atoms: _592  and  _593
REMARK  243  A    between atoms: _593  and  _594
REMARK  244  A    between atoms: _598  and  _600
REMARK  245  A    between atoms: _600  and  _601
REMARK  246  A    between atoms: _600  and  _608
REMARK  247  A    between atoms: _601  and  _602
REMARK  248  A    between atoms: _602  and  _603
REMARK  249  A    between atoms: _603  and  _604
REMARK  250  A    between atoms: _604  and  _605
REMARK  251  A    between atoms: _610  and  _612
REMARK  252  A    between atoms: _612  and  _613
REMARK  253  A    between atoms: _612  and  _615
REMARK  254  A    between atoms: _615  and  _616
REMARK  255  A    between atoms: _619  and  _621
REMARK  256  A    between atoms: _621  and  _622
REMARK  257  A    between atoms: _624  and  _626
REMARK  258  A    between atoms: _626  and  _627
REMARK  259  A    between atoms: _630  and  _632
REMARK  260  A    between atoms: _632  and  _633
REMARK  261  A    between atoms: _632  and  _635
REMARK  262  A    between atoms: _635  and  _636
REMARK  263  A    between atoms: _641  and  _642
REMARK                            x       y       z     vdW  Elec       q    Type
REMARK                         _______ _______ _______ _____ _____    ______ ____
ROOT
ATOM      1  C   GLY A   2      37.911  14.547  23.523  0.00  0.00    +0.243 C 
ATOM      2  O   GLY A   2      37.542  13.377  23.640  0.00  0.00    -0.273 OA
ATOM      3  N   VAL A   3      37.070  15.548  23.298  0.00  0.00    -0.297 N 
ATOM      4  H   VAL A   3      37.442  16.455  22.950  0.00  0.00    +0.150 HD
ENDROOT
BRANCH   1   5
ATOM      5  CA  GLY A   2      39.386  14.903  23.593  0.00  0.00    +0.176 C 
BRANCH   5   8
ATOM      6  C   ASN A   1      40.503  13.358  25.122  0.00  0.00    +0.239 C 
ATOM      7  O   ASN A   1      40.473  14.135  26.075  0.00  0.00    -0.274 OA
ATOM      8  N   GLY A   2      40.133  13.689  23.889  0.00  0.00    -0.296 N 
ATOM      9  H   GLY A   2      40.387  13.055  23.104  0.00  0.00    +0.150 HD
BRANCH   6  10
ATOM     10  CA  ASN A   1      41.003  11.930  25.288  0.00  0.00    +0.154 C 
BRANCH  10  11
ATOM     11  N   ASN A   1      42.007  11.751  26.329  0.00  0.00    -0.238 NA
ATOM     12  H   ASN A   1      41.844  12.133  27.282  0.00  0.00    +0.142 HD
ENDBRANCH  10  11
BRANCH  10  13
ATOM     13  CB  ASN A   1      39.827  10.948  25.468  0.00  0.00    +0.111 C 
BRANCH  13  14
ATOM     14  CG  ASN A   1      38.887  11.349  26.597  0.00  0.00    +0.221 C 
ATOM     15  OD1 ASN A   1      39.178  11.128  27.771  0.00  0.00    -0.275 OA
ATOM     16  ND2 ASN A   1      37.747  11.928  26.239  0.00  0.00    -0.329 N 
ATOM     17 HD21 ASN A   1      37.059  12.214  26.964  0.00  0.00    +0.145 HD
ATOM     18 HD22 ASN A   1      37.542  12.096  25.233  0.00  0.00    +0.145 HD
ENDBRANCH  13  14
ENDBRANCH  10  13
ENDBRANCH   6  10
ENDBRANCH   5   8
ENDBRANCH   1   5
BRANCH   3  19
ATOM     19  CA  VAL A   3      35.628  15.407  23.528  0.00  0.00    +0.149 C 
BRANCH  19  20
ATOM     20  C   VAL A   3      34.788  15.493  22.249  0.00  0.00    +0.241 C 
ATOM     21  O   VAL A   3      33.556  15.499  22.299  0.00  0.00    -0.273 OA
ATOM     22  N   ALA A   4      35.473  15.570  21.109  0.00  0.00    -0.298 N 
ATOM     23  H   ALA A   4      36.503  15.705  21.160  0.00  0.00    +0.150 HD
BRANCH  22  24
ATOM     24  CA  ALA A   4      34.848  15.474  19.787  0.00  0.00    +0.137 C 
ATOM     25  CB  ALA A   4      34.124  16.770  19.420  0.00  0.00    +0.030 C 
BRANCH  24  26
ATOM     26  C   ALA A   4      35.952  15.178  18.787  0.00  0.00    +0.227 C 
ATOM     27  O   ALA A   4      37.119  15.504  19.032  0.00  0.00    -0.286 OA
ENDBRANCH  24  26
ENDBRANCH  22  24
ENDBRANCH  19  20
BRANCH  19  28
ATOM     28  CB  VAL A   3      35.134  16.414  24.604  0.00  0.00    +0.027 C 
ATOM     29  CG2 VAL A   3      35.705  16.043  25.975  0.00  0.00    +0.002 C 
ATOM     30  CG1 VAL A   3      35.508  17.852  24.234  0.00  0.00    +0.002 C 
ENDBRANCH  19  28
ENDBRANCH   3  19
TORSDOF 11
REMARK  Name = ../refined-set-2016/2qrg/2qrg_pocket.pdb
REMARK  263 active torsions:
REMARK  status: ('A' for Active; 'I' for Inactive)
REMARK    1  A    between atoms: _1  and  _3
REMARK    2  A    between atoms: _3  and  _4
REMARK    3  A    between atoms: _3  and  _6
REMARK    4  A    between atoms: _6  and  _7
REMARK    5  A    between atoms: _12  and  _13
REMARK    6  A    between atoms: _15  and  _17
REMARK    7  A    between atoms: _17  and  _18
REMARK    8  A    between atoms: _17  and  _20
REMARK    9  A    between atoms: _20  and  _21
REMARK   10  A    between atoms: _24  and  _26
REMARK   11  A    between atoms: _26  and  _27
REMARK   12  A    between atoms: _26  and  _29
REMARK   13  A    between atoms: _29  and  _30
REMARK   14  A    between atoms: _30  and  _31
REMARK   15  A    between atoms: _34  and  _36
REMARK   16  A    between atoms: _36  and  _37
REMARK   17  A    between atoms: _36  and  _39
REMARK   18  A    between atoms: _39  and  _40
REMARK   19  A    between atoms: _45  and  _47
REMARK   20  A    between atoms: _47  and  _48
REMARK   21  A    between atoms: _50  and  _52
REMARK   22  A    between atoms: _52  and  _53
REMARK   23  A    between atoms: _55  and  _57
REMARK   24  A    between atoms: _57  and  _58
REMARK   25  A    between atoms: _57  and  _60
REMARK   26  A    between atoms: _60  and  _61
REMARK   27  A    between atoms: _64  and  _66
REMARK   28  A    between atoms: _66  and  _67
REMARK   29  A    between atoms: _69  and  _71
REMARK   30  A    between atoms: _71  and  _72
REMARK   31  A    between atoms: _71  and  _74
REMARK   32  A    between atoms: _74  and  _75
REMARK   33  A    between atoms: _75  and  _76
REMARK   34  A    between atoms: _76  and  _77
REMARK   35  A    between atoms: _86  and  _88
REMARK   36  A    between atoms: _88  and  _89
REMARK   37  A    between atoms: _88  and  _91
REMARK   38  A    between atoms: _91  and  _92
REMARK   39  A    between atoms: _95  and  _97
REMARK   40  A    between atoms: _97  and  _98
REMARK   41  A    between atoms: _101  and  _103
REMARK   42  A    between atoms: _103  and  _104
REMARK   43  A    between atoms: _103  and  _106
REMARK   44  A    between atoms: _106  and  _107
REMARK   45  A    between atoms: _113  and  _115
REMARK   46  A    between atoms: _115  and  _116
REMARK   47  A    between atoms: _115  and  _118
REMARK   48  A    between atoms: _118  and  _119
REMARK   49  A    between atoms: _122  and  _124
REMARK   50  A    between atoms: _124  and  _125
REMARK   51  A    between atoms: _124  and  _127
REMARK   52  A    between atoms: _127  and  _128
REMARK   53  A    between atoms: _133  and  _134
REMARK   54  A    between atoms: _137  and  _138
REMARK   55  A    between atoms: _143  and  _145
REMARK   56  A    between atoms: _145  and  _146
REMARK   57  A    between atoms: _145  and  _148
REMARK   58  A    between atoms: _148  and  _149
REMARK   59  A    between atoms: _154  and  _156
REMARK   60  A    between atoms: _156  and  _157
REMARK   61  A    between atoms: _156  and  _159
REMARK   62  A    between atoms: _159  and  _160
REMARK   63  A    between atoms: _163  and  _165
REMARK   64  A    between atoms: _165  and  _166
REMARK   65  A    between atoms: _165  and  _168
REMARK   66  A    between atoms: _168  and  _169
REMARK   67  A    between atoms: _174  and  _176
REMARK   68  A    between atoms: _176  and  _177
REMARK   69  A    between atoms: _176  and  _179
REMARK   70  A    between atoms: _179  and  _180
REMARK   71  A    between atoms: _186  and  _188
REMARK   72  A    between atoms: _188  and  _189
REMARK   73  A    between atoms: _188  and  _191
REMARK   74  A    between atoms: _191  and  _192
REMARK   75  A    between atoms: _198  and  _200
REMARK   76  A    between atoms: _200  and  _201
REMARK   77  A    between atoms: _200  and  _203
REMARK   78  A    between atoms: _203  and  _204
REMARK   79  A    between atoms: _204  and  _205
REMARK   80  A    between atoms: _208  and  _210
REMARK   81  A    between atoms: _210  and  _211
REMARK   82  A    between atoms: _210  and  _213
REMARK   83  A    between atoms: _213  and  _214
REMARK   84  A    between atoms: _214  and  _215
REMARK   85  A    between atoms: _215  and  _216
REMARK   86  A    between atoms: _225  and  _227
REMARK   87  A    between atoms: _227  and  _228
REMARK   88  A    between atoms: _227  and  _230
REMARK   89  A    between atoms: _230  and  _231
REMARK   90  A    between atoms: _231  and  _232
REMARK   91  A    between atoms: _235  and  _237
REMARK   92  A    between atoms: _237  and  _238
REMARK   93  A    between atoms: _237  and  _240
REMARK   94  A    between atoms: _240  and  _241
REMARK   95  A    between atoms: _246  and  _248
REMARK   96  A    between atoms: _248  and  _249
REMARK   97  A    between atoms: _248  and  _251
REMARK   98  A    between atoms: _251  and  _252
REMARK   99  A    between atoms: _255  and  _257
REMARK  100  A    between atoms: _257  and  _258
REMARK  101  A    between atoms: _257  and  _260
REMARK  102  A    between atoms: _260  and  _261
REMARK  103  A    between atoms: _264  and  _266
REMARK  104  A    between atoms: _266  and  _267
REMARK  105  A    between atoms: _266  and  _269
REMARK  106  A    between atoms: _269  and  _270
REMARK  107  A    between atoms: _275  and  _277
REMARK  108  A    between atoms: _277  and  _278
REMARK  109  A    between atoms: _277  and  _280
REMARK  110  A    between atoms: _280  and  _281
REMARK  111  A    between atoms: _284  and  _286
REMARK  112  A    between atoms: _286  and  _287
REMARK  113  A    between atoms: _286  and  _289
REMARK  114  A    between atoms: _289  and  _290
REMARK  115  A    between atoms: _295  and  _297
REMARK  116  A    between atoms: _297  and  _298
REMARK  117  A    between atoms: _297  and  _300
REMARK  118  A    between atoms: _300  and  _301
REMARK  119  A    between atoms: _306  and  _308
REMARK  120  A    between atoms: _308  and  _309
REMARK  121  A    between atoms: _308  and  _311
REMARK  122  A    between atoms: _311  and  _312
REMARK  123  A    between atoms: _315  and  _317
REMARK  124  A    between atoms: _317  and  _318
REMARK  125  A    between atoms: _317  and  _320
REMARK  126  A    between atoms: _323  and  _325
REMARK  127  A    between atoms: _325  and  _326
REMARK  128  A    between atoms: _325  and  _328
REMARK  129  A    between atoms: _328  and  _329
REMARK  130  A    between atoms: _332  and  _334
REMARK  131  A    between atoms: _334  and  _335
REMARK  132  A    between atoms: _334  and  _337
REMARK  133  A    between atoms: _337  and  _338
REMARK  134  A    between atoms: _338  and  _339
REMARK  135  A    between atoms: _342  and  _344
REMARK  136  A    between atoms: _344  and  _345
REMARK  137  A    between atoms: _348  and  _350
REMARK  138  A    between atoms: _350  and  _351
REMARK  139  A    between atoms: _350  and  _353
REMARK  140  A    between atoms: _353  and  _354
REMARK  141  A    between atoms: _357  and  _359
REMARK  142  A    between atoms: _359  and  _360
REMARK  143  A    between atoms: _359  and  _362
REMARK  144  A    between atoms: _362  and  _363
REMARK  145  A    between atoms: _363  and  _364
REMARK  146  A    between atoms: _367  and  _369
REMARK  147  A    between atoms: _369  and  _370
REMARK  148  A    between atoms: _369  and  _372
REMARK  149  A    between atoms: _372  and  _373
REMARK  150  A    between atoms: _378  and  _380
REMARK  151  A    between atoms: _380  and  _381
REMARK  152  A    between atoms: _383  and  _385
REMARK  153  A    between atoms: _385  and  _386
REMARK  154  A    between atoms: _385  and  _388
REMARK  155  A    between atoms: _391  and  _393
REMARK  156  A    between atoms: _393  and  _394
REMARK  157  A    between atoms: _397  and  _399
REMARK  158  A    between atoms: _399  and  _400
REMARK  159  A    between atoms: _399  and  _402
REMARK  160  A    between atoms: _402  and  _403
REMARK  161  A    between atoms: _408  and  _410
REMARK  162  A    between atoms: _410  and  _411
REMARK  163  A    between atoms: _410  and  _413
REMARK  164  A    between atoms: _413  and  _414
REMARK  165  A    between atoms: _414  and  _415
REMARK  166  A    between atoms: _415  and  _416
REMARK  167  A    between atoms: _416  and  _417
REMARK  168  A    between atoms: _421  and  _423
REMARK  169  A    between atoms: _423  and  _424
REMARK  170  A    between atoms: _423  and  _426
REMARK  171  A    between atoms: _426  and  _427
REMARK  172  A    between atoms: _430  and  _432
REMARK  173  A    between atoms: _432  and  _433
REMARK  174  A    between atoms: _432  and  _435
REMARK  175  A    between atoms: _435  and  _436
REMARK  176  A    between atoms: _441  and  _443
REMARK  177  A    between atoms: _443  and  _444
REMARK  178  A    between atoms: _446  and  _448
REMARK  179  A    between atoms: _448  and  _449
REMARK  180  A    between atoms: _448  and  _451
REMARK  181  A    between atoms: _451  and  _452
REMARK  182  A    between atoms: _452  and  _453
REMARK  183  A    between atoms: _453  and  _454
REMARK  184  A    between atoms: _454  and  _455
REMARK  185  A    between atoms: _459  and  _461
REMARK  186  A    between atoms: _461  and  _462
REMARK  187  A    between atoms: _461  and  _464
REMARK  188  A    between atoms: _464  and  _465
REMARK  189  A    between atoms: _465  and  _466
REMARK  190  A    between atoms: _466  and  _467
REMARK  191  A    between atoms: _476  and  _478
REMARK  192  A    between atoms: _478  and  _479
REMARK  193  A    between atoms: _478  and  _481
REMARK  194  A    between atoms: _481  and  _482
REMARK  195  A    between atoms: _487  and  _488
REMARK  196  A    between atoms: _490  and  _492
REMARK  197  A    between atoms: _492  and  _493
REMARK  198  A    between atoms: _492  and  _495
REMARK  199  A    between atoms: _495  and  _496
REMARK  200  A    between atoms: _496  and  _497
REMARK  201  A    between atoms: _497  and  _498
REMARK  202  A    between atoms: _498  and  _499
REMARK  203  A    between atoms: _503  and  _505
REMARK  204  A    between atoms: _505  and  _506
REMARK  205  A    between atoms: _505  and  _508
REMARK  206  A    between atoms: _508  and  _509
REMARK  207  A    between atoms: _511  and  _513
REMARK  208  A    between atoms: _513  and  _514
REMARK  209  A    between atoms: _513  and  _516
REMARK  210  A    between atoms: _516  and  _517
REMARK  211  A    between atoms: _520  and  _522
REMARK  212  A    between atoms: _522  and  _523
REMARK  213  A    between atoms: _522  and  _525
REMARK  214  A    between atoms: _525  and  _526
REMARK  215  A    between atoms: _526  and  _527
REMARK  216  A    between atoms: _530  and  _532
REMARK  217  A    between atoms: _532  and  _533
REMARK  218  A    between atoms: _536  and  _538
REMARK  219  A    between atoms: _538  and  _539
REMARK  220  A    between atoms: _538  and  _541
REMARK  221  A    between atoms: _541  and  _542
REMARK  222  A    between atoms: _544  and  _546
REMARK  223  A    between atoms: _546  and  _547
REMARK  224  A    between atoms: _549  and  _551
REMARK  225  A    between atoms: _551  and  _552
REMARK  226  A    between atoms: _551  and  _554
REMARK  227  A    between atoms: _554  and  _555
REMARK  228  A    between atoms: _558  and  _560
REMARK  229  A    between atoms: _560  and  _561
REMARK  230  A    between atoms: _563  and  _565
REMARK  231  A    between atoms: _565  and  _566
REMARK  232  A    between atoms: _565  and  _568
REMARK  233  A    between atoms: _568  and  _569
REMARK  234  A    between atoms: _574  and  _576
REMARK  235  A    between atoms: _576  and  _577
REMARK  236  A    between atoms: _576  and  _579
REMARK  237  A    between atoms: _579  and  _580
REMARK  238  A    between atoms: _580  and  _581
REMARK  239  A    between atoms: _588  and  _589
REMARK  240  A    between atoms: _589  and  _605
REMARK  241  A    between atoms: _590  and  _592
REMARK  242  A    between atoms: _592  and  _593
REMARK  243  A    between atoms: _593  and  _594
REMARK  244  A    between atoms: _598  and  _600
REMARK  245  A    between atoms: _600  and  _601
REMARK  246  A    between atoms: _600  and  _608
REMARK  247  A    between atoms: _601  and  _602
REMARK  248  A    between atoms: _602  and  _603
REMARK  249  A    between atoms: _603  and  _604
REMARK  250  A    between atoms: _604  and  _605
REMARK  251  A    between atoms: _610  and  _612
REMARK  252  A    between atoms: _612  and  _613
REMARK  253  A    between atoms: _612  and  _615
REMARK  254  A    between atoms: _615  and  _616
REMARK  255  A    between atoms: _619  and  _621
REMARK  256  A    between atoms: _621  and  _622
REMARK  257  A    between atoms: _624  and  _626
REMARK  258  A    between atoms: _626  and  _627
REMARK  259  A    between atoms: _630  and  _632
REMARK  260  A    between atoms: _632  and  _633
REMARK  261  A    between atoms: _632  and  _635
REMARK  262  A    between atoms: _635  and  _636
REMARK  263  A    between atoms: _641  and  _642
REMARK                            x       y       z     vdW  Elec       q    Type
REMARK                         _______ _______ _______ _____ _____    ______ ____
ROOT
ATOM      1  CB  HIS A   1      38.088  18.650  20.136  0.00  0.00    +0.072 C 
ENDROOT
BRANCH   1   2
ATOM      2  CG  HIS A   1      38.761  18.810  21.464  0.00  0.00    +0.082 A 
ATOM      3  CD2 HIS A   1      38.732  18.032  22.570  0.00  0.00    +0.115 A 
ATOM      4  NE2 HIS A   1      39.517  18.642  23.517  0.00  0.00    -0.221 NA
ATOM      5  CE1 HIS A   1      40.001  19.763  23.014  0.00  0.00    +0.199 A 
ATOM      6  ND1 HIS A   1      39.556  19.891  21.776  0.00  0.00    -0.227 NA
ENDBRANCH   1   2
BRANCH   1   7
ATOM      7  CA  HIS A   1      39.052  18.457  18.956  0.00  0.00    +0.139 C 
BRANCH   7   8
ATOM      8  N   HIS A   1      38.299  18.001  17.793  0.00  0.00    -0.239 NA
ATOM      9  H   HIS A   1      37.323  17.670  17.934  0.00  0.00    +0.142 HD
ENDBRANCH   7   8
BRANCH   7  10
ATOM     10  C   HIS A   1      40.184  17.480  19.284  0.00  0.00    +0.224 C 
ATOM     11  O   HIS A   1      41.329  17.898  19.480  0.00  0.00    -0.287 OA
ENDBRANCH   7  10
ENDBRANCH   1   7
TORSDOF 4
REMARK  Name = ../refined-set-2016/2qrg/2qrg_pocket.pdb
REMARK  263 active torsions:
REMARK  status: ('A' for Active; 'I' for Inactive)
REMARK    1  A    between atoms: _1  and  _3
REMARK    2  A    between atoms: _3  and  _4
REMARK    3  A    between atoms: _3  and  _6
REMARK    4  A    between atoms: _6  and  _7
REMARK    5  A    between atoms: _12  and  _13
REMARK    6  A    between atoms: _15  and  _17
REMARK    7  A    between atoms: _17  and  _18
REMARK    8  A    between atoms: _17  and  _20
REMARK    9  A    between atoms: _20  and  _21
REMARK   10  A    between atoms: _24  and  _26
REMARK   11  A    between atoms: _26  and  _27
REMARK   12  A    between atoms: _26  and  _29
REMARK   13  A    between atoms: _29  and  _30
REMARK   14  A    between atoms: _30  and  _31
REMARK   15  A    between atoms: _34  and  _36
REMARK   16  A    between atoms: _36  and  _37
REMARK   17  A    between atoms: _36  and  _39
REMARK   18  A    between atoms: _39  and  _40
REMARK   19  A    between atoms: _45  and  _47
REMARK   20  A    between atoms: _47  and  _48
REMARK   21  A    between atoms: _50  and  _52
REMARK   22  A    between atoms: _52  and  _53
REMARK   23  A    between atoms: _55  and  _57
REMARK   24  A    between atoms: _57  and  _58
REMARK   25  A    between atoms: _57  and  _60
REMARK   26  A    between atoms: _60  and  _61
REMARK   27  A    between atoms: _64  and  _66
REMARK   28  A    between atoms: _66  and  _67
REMARK   29  A    between atoms: _69  and  _71
REMARK   30  A    between atoms: _71  and  _72
REMARK   31  A    between atoms: _71  and  _74
REMARK   32  A    between atoms: _74  and  _75
REMARK   33  A    between atoms: _75  and  _76
REMARK   34  A    between atoms: _76  and  _77
REMARK   35  A    between atoms: _86  and  _88
REMARK   36  A    between atoms: _88  and  _89
REMARK   37  A    between atoms: _88  and  _91
REMARK   38  A    between atoms: _91  and  _92
REMARK   39  A    between atoms: _95  and  _97
REMARK   40  A    between atoms: _97  and  _98
REMARK   41  A    between atoms: _101  and  _103
REMARK   42  A    between atoms: _103  and  _104
REMARK   43  A    between atoms: _103  and  _106
REMARK   44  A    between atoms: _106  and  _107
REMARK   45  A    between atoms: _113  and  _115
REMARK   46  A    between atoms: _115  and  _116
REMARK   47  A    between atoms: _115  and  _118
REMARK   48  A    between atoms: _118  and  _119
REMARK   49  A    between atoms: _122  and  _124
REMARK   50  A    between atoms: _124  and  _125
REMARK   51  A    between atoms: _124  and  _127
REMARK   52  A    between atoms: _127  and  _128
REMARK   53  A    between atoms: _133  and  _134
REMARK   54  A    between atoms: _137  and  _138
REMARK   55  A    between atoms: _143  and  _145
REMARK   56  A    between atoms: _145  and  _146
REMARK   57  A    between atoms: _145  and  _148
REMARK   58  A    between atoms: _148  and  _149
REMARK   59  A    between atoms: _154  and  _156
REMARK   60  A    between atoms: _156  and  _157
REMARK   61  A    between atoms: _156  and  _159
REMARK   62  A    between atoms: _159  and  _160
REMARK   63  A    between atoms: _163  and  _165
REMARK   64  A    between atoms: _165  and  _166
REMARK   65  A    between atoms: _165  and  _168
REMARK   66  A    between atoms: _168  and  _169
REMARK   67  A    between atoms: _174  and  _176
REMARK   68  A    between atoms: _176  and  _177
REMARK   69  A    between atoms: _176  and  _179
REMARK   70  A    between atoms: _179  and  _180
REMARK   71  A    between atoms: _186  and  _188
REMARK   72  A    between atoms: _188  and  _189
REMARK   73  A    between atoms: _188  and  _191
REMARK   74  A    between atoms: _191  and  _192
REMARK   75  A    between atoms: _198  and  _200
REMARK   76  A    between atoms: _200  and  _201
REMARK   77  A    between atoms: _200  and  _203
REMARK   78  A    between atoms: _203  and  _204
REMARK   79  A    between atoms: _204  and  _205
REMARK   80  A    between atoms: _208  and  _210
REMARK   81  A    between atoms: _210  and  _211
REMARK   82  A    between atoms: _210  and  _213
REMARK   83  A    between atoms: _213  and  _214
REMARK   84  A    between atoms: _214  and  _215
REMARK   85  A    between atoms: _215  and  _216
REMARK   86  A    between atoms: _225  and  _227
REMARK   87  A    between atoms: _227  and  _228
REMARK   88  A    between atoms: _227  and  _230
REMARK   89  A    between atoms: _230  and  _231
REMARK   90  A    between atoms: _231  and  _232
REMARK   91  A    between atoms: _235  and  _237
REMARK   92  A    between atoms: _237  and  _238
REMARK   93  A    between atoms: _237  and  _240
REMARK   94  A    between atoms: _240  and  _241
REMARK   95  A    between atoms: _246  and  _248
REMARK   96  A    between atoms: _248  and  _249
REMARK   97  A    between atoms: _248  and  _251
REMARK   98  A    between atoms: _251  and  _252
REMARK   99  A    between atoms: _255  and  _257
REMARK  100  A    between atoms: _257  and  _258
REMARK  101  A    between atoms: _257  and  _260
REMARK  102  A    between atoms: _260  and  _261
REMARK  103  A    between atoms: _264  and  _266
REMARK  104  A    between atoms: _266  and  _267
REMARK  105  A    between atoms: _266  and  _269
REMARK  106  A    between atoms: _269  and  _270
REMARK  107  A    between atoms: _275  and  _277
REMARK  108  A    between atoms: _277  and  _278
REMARK  109  A    between atoms: _277  and  _280
REMARK  110  A    between atoms: _280  and  _281
REMARK  111  A    between atoms: _284  and  _286
REMARK  112  A    between atoms: _286  and  _287
REMARK  113  A    between atoms: _286  and  _289
REMARK  114  A    between atoms: _289  and  _290
REMARK  115  A    between atoms: _295  and  _297
REMARK  116  A    between atoms: _297  and  _298
REMARK  117  A    between atoms: _297  and  _300
REMARK  118  A    between atoms: _300  and  _301
REMARK  119  A    between atoms: _306  and  _308
REMARK  120  A    between atoms: _308  and  _309
REMARK  121  A    between atoms: _308  and  _311
REMARK  122  A    between atoms: _311  and  _312
REMARK  123  A    between atoms: _315  and  _317
REMARK  124  A    between atoms: _317  and  _318
REMARK  125  A    between atoms: _317  and  _320
REMARK  126  A    between atoms: _323  and  _325
REMARK  127  A    between atoms: _325  and  _326
REMARK  128  A    between atoms: _325  and  _328
REMARK  129  A    between atoms: _328  and  _329
REMARK  130  A    between atoms: _332  and  _334
REMARK  131  A    between atoms: _334  and  _335
REMARK  132  A    between atoms: _334  and  _337
REMARK  133  A    between atoms: _337  and  _338
REMARK  134  A    between atoms: _338  and  _339
REMARK  135  A    between atoms: _342  and  _344
REMARK  136  A    between atoms: _344  and  _345
REMARK  137  A    between atoms: _348  and  _350
REMARK  138  A    between atoms: _350  and  _351
REMARK  139  A    between atoms: _350  and  _353
REMARK  140  A    between atoms: _353  and  _354
REMARK  141  A    between atoms: _357  and  _359
REMARK  142  A    between atoms: _359  and  _360
REMARK  143  A    between atoms: _359  and  _362
REMARK  144  A    between atoms: _362  and  _363
REMARK  145  A    between atoms: _363  and  _364
REMARK  146  A    between atoms: _367  and  _369
REMARK  147  A    between atoms: _369  and  _370
REMARK  148  A    between atoms: _369  and  _372
REMARK  149  A    between atoms: _372  and  _373
REMARK  150  A    between atoms: _378  and  _380
REMARK  151  A    between atoms: _380  and  _381
REMARK  152  A    between atoms: _383  and  _385
REMARK  153  A    between atoms: _385  and  _386
REMARK  154  A    between atoms: _385  and  _388
REMARK  155  A    between atoms: _391  and  _393
REMARK  156  A    between atoms: _393  and  _394
REMARK  157  A    between atoms: _397  and  _399
REMARK  158  A    between atoms: _399  and  _400
REMARK  159  A    between atoms: _399  and  _402
REMARK  160  A    between atoms: _402  and  _403
REMARK  161  A    between atoms: _408  and  _410
REMARK  162  A    between atoms: _410  and  _411
REMARK  163  A    between atoms: _410  and  _413
REMARK  164  A    between atoms: _413  and  _414
REMARK  165  A    between atoms: _414  and  _415
REMARK  166  A    between atoms: _415  and  _416
REMARK  167  A    between atoms: _416  and  _417
REMARK  168  A    between atoms: _421  and  _423
REMARK  169  A    between atoms: _423  and  _424
REMARK  170  A    between atoms: _423  and  _426
REMARK  171  A    between atoms: _426  and  _427
REMARK  172  A    between atoms: _430  and  _432
REMARK  173  A    between atoms: _432  and  _433
REMARK  174  A    between atoms: _432  and  _435
REMARK  175  A    between atoms: _435  and  _436
REMARK  176  A    between atoms: _441  and  _443
REMARK  177  A    between atoms: _443  and  _444
REMARK  178  A    between atoms: _446  and  _448
REMARK  179  A    between atoms: _448  and  _449
REMARK  180  A    between atoms: _448  and  _451
REMARK  181  A    between atoms: _451  and  _452
REMARK  182  A    between atoms: _452  and  _453
REMARK  183  A    between atoms: _453  and  _454
REMARK  184  A    between atoms: _454  and  _455
REMARK  185  A    between atoms: _459  and  _461
REMARK  186  A    between atoms: _461  and  _462
REMARK  187  A    between atoms: _461  and  _464
REMARK  188  A    between atoms: _464  and  _465
REMARK  189  A    between atoms: _465  and  _466
REMARK  190  A    between atoms: _466  and  _467
REMARK  191  A    between atoms: _476  and  _478
REMARK  192  A    between atoms: _478  and  _479
REMARK  193  A    between atoms: _478  and  _481
REMARK  194  A    between atoms: _481  and  _482
REMARK  195  A    between atoms: _487  and  _488
REMARK  196  A    between atoms: _490  and  _492
REMARK  197  A    between atoms: _492  and  _493
REMARK  198  A    between atoms: _492  and  _495
REMARK  199  A    between atoms: _495  and  _496
REMARK  200  A    between atoms: _496  and  _497
REMARK  201  A    between atoms: _497  and  _498
REMARK  202  A    between atoms: _498  and  _499
REMARK  203  A    between atoms: _503  and  _505
REMARK  204  A    between atoms: _505  and  _506
REMARK  205  A    between atoms: _505  and  _508
REMARK  206  A    between atoms: _508  and  _509
REMARK  207  A    between atoms: _511  and  _513
REMARK  208  A    between atoms: _513  and  _514
REMARK  209  A    between atoms: _513  and  _516
REMARK  210  A    between atoms: _516  and  _517
REMARK  211  A    between atoms: _520  and  _522
REMARK  212  A    between atoms: _522  and  _523
REMARK  213  A    between atoms: _522  and  _525
REMARK  214  A    between atoms: _525  and  _526
REMARK  215  A    between atoms: _526  and  _527
REMARK  216  A    between atoms: _530  and  _532
REMARK  217  A    between atoms: _532  and  _533
REMARK  218  A    between atoms: _536  and  _538
REMARK  219  A    between atoms: _538  and  _539
REMARK  220  A    between atoms: _538  and  _541
REMARK  221  A    between atoms: _541  and  _542
REMARK  222  A    between atoms: _544  and  _546
REMARK  223  A    between atoms: _546  and  _547
REMARK  224  A    between atoms: _549  and  _551
REMARK  225  A    between atoms: _551  and  _552
REMARK  226  A    between atoms: _551  and  _554
REMARK  227  A    between atoms: _554  and  _555
REMARK  228  A    between atoms: _558  and  _560
REMARK  229  A    between atoms: _560  and  _561
REMARK  230  A    between atoms: _563  and  _565
REMARK  231  A    between atoms: _565  and  _566
REMARK  232  A    between atoms: _565  and  _568
REMARK  233  A    between atoms: _568  and  _569
REMARK  234  A    between atoms: _574  and  _576
REMARK  235  A    between atoms: _576  and  _577
REMARK  236  A    between atoms: _576  and  _579
REMARK  237  A    between atoms: _579  and  _580
REMARK  238  A    between atoms: _580  and  _581
REMARK  239  A    between atoms: _588  and  _589
REMARK  240  A    between atoms: _589  and  _605
REMARK  241  A    between atoms: _590  and  _592
REMARK  242  A    between atoms: _592  and  _593
REMARK  243  A    between atoms: _593  and  _594
REMARK  244  A    between atoms: _598  and  _600
REMARK  245  A    between atoms: _600  and  _601
REMARK  246  A    between atoms: _600  and  _608
REMARK  247  A    between atoms: _601  and  _602
REMARK  248  A    between atoms: _602  and  _603
REMARK  249  A    between atoms: _603  and  _604
REMARK  250  A    between atoms: _604  and  _605
REMARK  251  A    between atoms: _610  and  _612
REMARK  252  A    between atoms: _612  and  _613
REMARK  253  A    between atoms: _612  and  _615
REMARK  254  A    between atoms: _615  and  _616
REMARK  255  A    between atoms: _619  and  _621
REMARK  256  A    between atoms: _621  and  _622
REMARK  257  A    between atoms: _624  and  _626
REMARK  258  A    between atoms: _626  and  _627
REMARK  259  A    between atoms: _630  and  _632
REMARK  260  A    between atoms: _632  and  _633
REMARK  261  A    between atoms: _632  and  _635
REMARK  262  A    between atoms: _635  and  _636
REMARK  263  A    between atoms: _641  and  _642
REMARK                            x       y       z     vdW  Elec       q    Type
REMARK                         _______ _______ _______ _____ _____    ______ ____
ROOT
ATOM      1  CA  THR A   2      32.674  12.417  21.512  0.00  0.00    +0.176 C 
ENDROOT
BRANCH   1   4
ATOM      2  C   LYS A   1      34.351  11.376  22.923  0.00  0.00    +0.238 C 
ATOM      3  O   LYS A   1      34.286  12.294  23.737  0.00  0.00    -0.274 OA
ATOM      4  N   THR A   2      33.609  11.340  21.821  0.00  0.00    -0.295 N 
ATOM      5  H   THR A   2      33.696  10.534  21.170  0.00  0.00    +0.150 HD
BRANCH   2   6
ATOM      6  CA  LYS A   1      35.319  10.223  23.130  0.00  0.00    +0.145 C 
BRANCH   6   7
ATOM      7  N   LYS A   1      36.607  10.621  22.566  0.00  0.00    -0.238 NA
ATOM      8  H   LYS A   1      36.940  11.594  22.719  0.00  0.00    +0.142 HD
ENDBRANCH   6   7
BRANCH   6   9
ATOM      9  CB  LYS A   1      35.435   9.888  24.625  0.00  0.00    +0.026 C 
BRANCH   9  10
ATOM     10  CG  LYS A   1      36.334   8.699  24.957  0.00  0.00    -0.000 C 
BRANCH  10  11
ATOM     11  CD  LYS A   1      35.703   7.372  24.531  0.00  0.00    -0.024 C 
BRANCH  11  12
ATOM     12  CE  LYS A   1      36.709   6.227  24.597  0.00  0.00    -0.086 C 
BRANCH  12  13
ATOM     13  NZ  LYS A   1      37.662   6.234  23.439  0.00  0.00    +0.380 N 
ATOM     14  HZ1 LYS A   1      38.324   5.437  23.531  0.00  0.00    -0.089 HD
ATOM     15  HZ2 LYS A   1      38.193   7.128  23.434  0.00  0.00    -0.089 HD
ATOM     16  HZ3 LYS A   1      37.128   6.142  22.551  0.00  0.00    -0.089 HD
ENDBRANCH  12  13
ENDBRANCH  11  12
ENDBRANCH  10  11
ENDBRANCH   9  10
ENDBRANCH   6   9
ENDBRANCH   2   6
ENDBRANCH   1   4
BRANCH   1  17
ATOM     17  C   THR A   2      31.612  12.527  22.609  0.00  0.00    +0.243 C 
ATOM     18  N   ASN A   3      31.378  13.755  23.062  0.00  0.00    -0.297 N 
ATOM     19  H   ASN A   3      31.908  14.547  22.645  0.00  0.00    +0.150 HD
ATOM     20  O   THR A   2      31.047  11.522  23.041  0.00  0.00    -0.273 OA
BRANCH  18  21
ATOM     21  CA  ASN A   3      30.411  14.044  24.119  0.00  0.00    +0.158 C 
BRANCH  21  22
ATOM     22  C   ASN A   3      28.993  13.583  23.780  0.00  0.00    +0.241 C 
ATOM     23  N   GLY A   4      28.143  13.552  24.798  0.00  0.00    -0.296 N 
ATOM     24  H   GLY A   4      28.492  13.769  25.753  0.00  0.00    +0.150 HD
ATOM     25  O   ASN A   3      28.679  13.268  22.633  0.00  0.00    -0.273 OA
BRANCH  23  26
ATOM     26  CA  GLY A   4      26.745  13.226  24.619  0.00  0.00    +0.163 C 
BRANCH  26  27
ATOM     27  C   GLY A   4      25.914  13.870  25.707  0.00  0.00    +0.229 C 
ATOM     28  O   GLY A   4      26.449  14.515  26.612  0.00  0.00    -0.286 OA
ENDBRANCH  26  27
ENDBRANCH  23  26
ENDBRANCH  21  22
BRANCH  21  29
ATOM     29  CB  ASN A   3      30.398  15.549  24.430  0.00  0.00    +0.114 C 
BRANCH  29  30
ATOM     30  CG  ASN A   3      31.536  15.982  25.360  0.00  0.00    +0.222 C 
ATOM     31  ND2 ASN A   3      32.223  15.021  25.950  0.00  0.00    -0.329 N 
ATOM     32 HD21 ASN A   3      32.994  15.260  26.606  0.00  0.00    +0.145 HD
ATOM     33 HD22 ASN A   3      31.993  14.025  25.759  0.00  0.00    +0.145 HD
ATOM     34  OD1 ASN A   3      31.770  17.185  25.554  0.00  0.00    -0.275 OA
ENDBRANCH  29  30
ENDBRANCH  21  29
ENDBRANCH  18  21
ENDBRANCH   1  17
BRANCH   1  35
ATOM     35  CB  THR A   2      32.033  12.227  20.116  0.00  0.00    +0.137 C 
ATOM     36  CG2 THR A   2      31.100  13.380  19.784  0.00  0.00    +0.034 C 
BRANCH  35  37
ATOM     37  OG1 THR A   2      33.076  12.176  19.131  0.00  0.00    -0.382 OA
ATOM     38  HG1 THR A   2      32.675  12.055  18.234  0.00  0.00    +0.210 HD
ENDBRANCH  35  37
ENDBRANCH   1  35
TORSDOF 17
REMARK  Name = ../refined-set-2016/2qrg/2qrg_pocket.pdb
REMARK  263 active torsions:
REMARK  status: ('A' for Active; 'I' for Inactive)
REMARK    1  A    between atoms: _1  and  _3
REMARK    2  A    between atoms: _3  and  _4
REMARK    3  A    between atoms: _3  and  _6
REMARK    4  A    between atoms: _6  and  _7
REMARK    5  A    between atoms: _12  and  _13
REMARK    6  A    between atoms: _15  and  _17
REMARK    7  A    between atoms: _17  and  _18
REMARK    8  A    between atoms: _17  and  _20
REMARK    9  A    between atoms: _20  and  _21
REMARK   10  A    between atoms: _24  and  _26
REMARK   11  A    between atoms: _26  and  _27
REMARK   12  A    between atoms: _26  and  _29
REMARK   13  A    between atoms: _29  and  _30
REMARK   14  A    between atoms: _30  and  _31
REMARK   15  A    between atoms: _34  and  _36
REMARK   16  A    between atoms: _36  and  _37
REMARK   17  A    between atoms: _36  and  _39
REMARK   18  A    between atoms: _39  and  _40
REMARK   19  A    between atoms: _45  and  _47
REMARK   20  A    between atoms: _47  and  _48
REMARK   21  A    between atoms: _50  and  _52
REMARK   22  A    between atoms: _52  and  _53
REMARK   23  A    between atoms: _55  and  _57
REMARK   24  A    between atoms: _57  and  _58
REMARK   25  A    between atoms: _57  and  _60
REMARK   26  A    between atoms: _60  and  _61
REMARK   27  A    between atoms: _64  and  _66
REMARK   28  A    between atoms: _66  and  _67
REMARK   29  A    between atoms: _69  and  _71
REMARK   30  A    between atoms: _71  and  _72
REMARK   31  A    between atoms: _71  and  _74
REMARK   32  A    between atoms: _74  and  _75
REMARK   33  A    between atoms: _75  and  _76
REMARK   34  A    between atoms: _76  and  _77
REMARK   35  A    between atoms: _86  and  _88
REMARK   36  A    between atoms: _88  and  _89
REMARK   37  A    between atoms: _88  and  _91
REMARK   38  A    between atoms: _91  and  _92
REMARK   39  A    between atoms: _95  and  _97
REMARK   40  A    between atoms: _97  and  _98
REMARK   41  A    between atoms: _101  and  _103
REMARK   42  A    between atoms: _103  and  _104
REMARK   43  A    between atoms: _103  and  _106
REMARK   44  A    between atoms: _106  and  _107
REMARK   45  A    between atoms: _113  and  _115
REMARK   46  A    between atoms: _115  and  _116
REMARK   47  A    between atoms: _115  and  _118
REMARK   48  A    between atoms: _118  and  _119
REMARK   49  A    between atoms: _122  and  _124
REMARK   50  A    between atoms: _124  and  _125
REMARK   51  A    between atoms: _124  and  _127
REMARK   52  A    between atoms: _127  and  _128
REMARK   53  A    between atoms: _133  and  _134
REMARK   54  A    between atoms: _137  and  _138
REMARK   55  A    between atoms: _143  and  _145
REMARK   56  A    between atoms: _145  and  _146
REMARK   57  A    between atoms: _145  and  _148
REMARK   58  A    between atoms: _148  and  _149
REMARK   59  A    between atoms: _154  and  _156
REMARK   60  A    between atoms: _156  and  _157
REMARK   61  A    between atoms: _156  and  _159
REMARK   62  A    between atoms: _159  and  _160
REMARK   63  A    between atoms: _163  and  _165
REMARK   64  A    between atoms: _165  and  _166
REMARK   65  A    between atoms: _165  and  _168
REMARK   66  A    between atoms: _168  and  _169
REMARK   67  A    between atoms: _174  and  _176
REMARK   68  A    between atoms: _176  and  _177
REMARK   69  A    between atoms: _176  and  _179
REMARK   70  A    between atoms: _179  and  _180
REMARK   71  A    between atoms: _186  and  _188
REMARK   72  A    between atoms: _188  and  _189
REMARK   73  A    between atoms: _188  and  _191
REMARK   74  A    between atoms: _191  and  _192
REMARK   75  A    between atoms: _198  and  _200
REMARK   76  A    between atoms: _200  and  _201
REMARK   77  A    between atoms: _200  and  _203
REMARK   78  A    between atoms: _203  and  _204
REMARK   79  A    between atoms: _204  and  _205
REMARK   80  A    between atoms: _208  and  _210
REMARK   81  A    between atoms: _210  and  _211
REMARK   82  A    between atoms: _210  and  _213
REMARK   83  A    between atoms: _213  and  _214
REMARK   84  A    between atoms: _214  and  _215
REMARK   85  A    between atoms: _215  and  _216
REMARK   86  A    between atoms: _225  and  _227
REMARK   87  A    between atoms: _227  and  _228
REMARK   88  A    between atoms: _227  and  _230
REMARK   89  A    between atoms: _230  and  _231
REMARK   90  A    between atoms: _231  and  _232
REMARK   91  A    between atoms: _235  and  _237
REMARK   92  A    between atoms: _237  and  _238
REMARK   93  A    between atoms: _237  and  _240
REMARK   94  A    between atoms: _240  and  _241
REMARK   95  A    between atoms: _246  and  _248
REMARK   96  A    between atoms: _248  and  _249
REMARK   97  A    between atoms: _248  and  _251
REMARK   98  A    between atoms: _251  and  _252
REMARK   99  A    between atoms: _255  and  _257
REMARK  100  A    between atoms: _257  and  _258
REMARK  101  A    between atoms: _257  and  _260
REMARK  102  A    between atoms: _260  and  _261
REMARK  103  A    between atoms: _264  and  _266
REMARK  104  A    between atoms: _266  and  _267
REMARK  105  A    between atoms: _266  and  _269
REMARK  106  A    between atoms: _269  and  _270
REMARK  107  A    between atoms: _275  and  _277
REMARK  108  A    between atoms: _277  and  _278
REMARK  109  A    between atoms: _277  and  _280
REMARK  110  A    between atoms: _280  and  _281
REMARK  111  A    between atoms: _284  and  _286
REMARK  112  A    between atoms: _286  and  _287
REMARK  113  A    between atoms: _286  and  _289
REMARK  114  A    between atoms: _289  and  _290
REMARK  115  A    between atoms: _295  and  _297
REMARK  116  A    between atoms: _297  and  _298
REMARK  117  A    between atoms: _297  and  _300
REMARK  118  A    between atoms: _300  and  _301
REMARK  119  A    between atoms: _306  and  _308
REMARK  120  A    between atoms: _308  and  _309
REMARK  121  A    between atoms: _308  and  _311
REMARK  122  A    between atoms: _311  and  _312
REMARK  123  A    between atoms: _315  and  _317
REMARK  124  A    between atoms: _317  and  _318
REMARK  125  A    between atoms: _317  and  _320
REMARK  126  A    between atoms: _323  and  _325
REMARK  127  A    between atoms: _325  and  _326
REMARK  128  A    between atoms: _325  and  _328
REMARK  129  A    between atoms: _328  and  _329
REMARK  130  A    between atoms: _332  and  _334
REMARK  131  A    between atoms: _334  and  _335
REMARK  132  A    between atoms: _334  and  _337
REMARK  133  A    between atoms: _337  and  _338
REMARK  134  A    between atoms: _338  and  _339
REMARK  135  A    between atoms: _342  and  _344
REMARK  136  A    between atoms: _344  and  _345
REMARK  137  A    between atoms: _348  and  _350
REMARK  138  A    between atoms: _350  and  _351
REMARK  139  A    between atoms: _350  and  _353
REMARK  140  A    between atoms: _353  and  _354
REMARK  141  A    between atoms: _357  and  _359
REMARK  142  A    between atoms: _359  and  _360
REMARK  143  A    between atoms: _359  and  _362
REMARK  144  A    between atoms: _362  and  _363
REMARK  145  A    between atoms: _363  and  _364
REMARK  146  A    between atoms: _367  and  _369
REMARK  147  A    between atoms: _369  and  _370
REMARK  148  A    between atoms: _369  and  _372
REMARK  149  A    between atoms: _372  and  _373
REMARK  150  A    between atoms: _378  and  _380
REMARK  151  A    between atoms: _380  and  _381
REMARK  152  A    between atoms: _383  and  _385
REMARK  153  A    between atoms: _385  and  _386
REMARK  154  A    between atoms: _385  and  _388
REMARK  155  A    between atoms: _391  and  _393
REMARK  156  A    between atoms: _393  and  _394
REMARK  157  A    between atoms: _397  and  _399
REMARK  158  A    between atoms: _399  and  _400
REMARK  159  A    between atoms: _399  and  _402
REMARK  160  A    between atoms: _402  and  _403
REMARK  161  A    between atoms: _408  and  _410
REMARK  162  A    between atoms: _410  and  _411
REMARK  163  A    between atoms: _410  and  _413
REMARK  164  A    between atoms: _413  and  _414
REMARK  165  A    between atoms: _414  and  _415
REMARK  166  A    between atoms: _415  and  _416
REMARK  167  A    between atoms: _416  and  _417
REMARK  168  A    between atoms: _421  and  _423
REMARK  169  A    between atoms: _423  and  _424
REMARK  170  A    between atoms: _423  and  _426
REMARK  171  A    between atoms: _426  and  _427
REMARK  172  A    between atoms: _430  and  _432
REMARK  173  A    between atoms: _432  and  _433
REMARK  174  A    between atoms: _432  and  _435
REMARK  175  A    between atoms: _435  and  _436
REMARK  176  A    between atoms: _441  and  _443
REMARK  177  A    between atoms: _443  and  _444
REMARK  178  A    between atoms: _446  and  _448
REMARK  179  A    between atoms: _448  and  _449
REMARK  180  A    between atoms: _448  and  _451
REMARK  181  A    between atoms: _451  and  _452
REMARK  182  A    between atoms: _452  and  _453
REMARK  183  A    between atoms: _453  and  _454
REMARK  184  A    between atoms: _454  and  _455
REMARK  185  A    between atoms: _459  and  _461
REMARK  186  A    between atoms: _461  and  _462
REMARK  187  A    between atoms: _461  and  _464
REMARK  188  A    between atoms: _464  and  _465
REMARK  189  A    between atoms: _465  and  _466
REMARK  190  A    between atoms: _466  and  _467
REMARK  191  A    between atoms: _476  and  _478
REMARK  192  A    between atoms: _478  and  _479
REMARK  193  A    between atoms: _478  and  _481
REMARK  194  A    between atoms: _481  and  _482
REMARK  195  A    between atoms: _487  and  _488
REMARK  196  A    between atoms: _490  and  _492
REMARK  197  A    between atoms: _492  and  _493
REMARK  198  A    between atoms: _492  and  _495
REMARK  199  A    between atoms: _495  and  _496
REMARK  200  A    between atoms: _496  and  _497
REMARK  201  A    between atoms: _497  and  _498
REMARK  202  A    between atoms: _498  and  _499
REMARK  203  A    between atoms: _503  and  _505
REMARK  204  A    between atoms: _505  and  _506
REMARK  205  A    between atoms: _505  and  _508
REMARK  206  A    between atoms: _508  and  _509
REMARK  207  A    between atoms: _511  and  _513
REMARK  208  A    between atoms: _513  and  _514
REMARK  209  A    between atoms: _513  and  _516
REMARK  210  A    between atoms: _516  and  _517
REMARK  211  A    between atoms: _520  and  _522
REMARK  212  A    between atoms: _522  and  _523
REMARK  213  A    between atoms: _522  and  _525
REMARK  214  A    between atoms: _525  and  _526
REMARK  215  A    between atoms: _526  and  _527
REMARK  216  A    between atoms: _530  and  _532
REMARK  217  A    between atoms: _532  and  _533
REMARK  218  A    between atoms: _536  and  _538
REMARK  219  A    between atoms: _538  and  _539
REMARK  220  A    between atoms: _538  and  _541
REMARK  221  A    between atoms: _541  and  _542
REMARK  222  A    between atoms: _544  and  _546
REMARK  223  A    between atoms: _546  and  _547
REMARK  224  A    between atoms: _549  and  _551
REMARK  225  A    between atoms: _551  and  _552
REMARK  226  A    between atoms: _551  and  _554
REMARK  227  A    between atoms: _554  and  _555
REMARK  228  A    between atoms: _558  and  _560
REMARK  229  A    between atoms: _560  and  _561
REMARK  230  A    between atoms: _563  and  _565
REMARK  231  A    between atoms: _565  and  _566
REMARK  232  A    between atoms: _565  and  _568
REMARK  233  A    between atoms: _568  and  _569
REMARK  234  A    between atoms: _574  and  _576
REMARK  235  A    between atoms: _576  and  _577
REMARK  236  A    between atoms: _576  and  _579
REMARK  237  A    between atoms: _579  and  _580
REMARK  238  A    between atoms: _580  and  _581
REMARK  239  A    between atoms: _588  and  _589
REMARK  240  A    between atoms: _589  and  _605
REMARK  241  A    between atoms: _590  and  _592
REMARK  242  A    between atoms: _592  and  _593
REMARK  243  A    between atoms: _593  and  _594
REMARK  244  A    between atoms: _598  and  _600
REMARK  245  A    between atoms: _600  and  _601
REMARK  246  A    between atoms: _600  and  _608
REMARK  247  A    between atoms: _601  and  _602
REMARK  248  A    between atoms: _602  and  _603
REMARK  249  A    between atoms: _603  and  _604
REMARK  250  A    between atoms: _604  and  _605
REMARK  251  A    between atoms: _610  and  _612
REMARK  252  A    between atoms: _612  and  _613
REMARK  253  A    between atoms: _612  and  _615
REMARK  254  A    between atoms: _615  and  _616
REMARK  255  A    between atoms: _619  and  _621
REMARK  256  A    between atoms: _621  and  _622
REMARK  257  A    between atoms: _624  and  _626
REMARK  258  A    between atoms: _626  and  _627
REMARK  259  A    between atoms: _630  and  _632
REMARK  260  A    between atoms: _632  and  _633
REMARK  261  A    between atoms: _632  and  _635
REMARK  262  A    between atoms: _635  and  _636
REMARK  263  A    between atoms: _641  and  _642
REMARK                            x       y       z     vdW  Elec       q    Type
REMARK                         _______ _______ _______ _____ _____    ______ ____
ROOT
ATOM      1  C   LYS A   1      25.866  30.468  27.183  0.00  0.00    +0.238 C 
ATOM      2  N   ARG A   2      26.957  30.139  27.866  0.00  0.00    -0.298 N 
ATOM      3  H   ARG A   2      27.270  29.148  27.899  0.00  0.00    +0.150 HD
ATOM      4  O   LYS A   1      25.431  31.619  27.153  0.00  0.00    -0.274 OA
ENDROOT
BRANCH   1   5
ATOM      5  CA  LYS A   1      25.156  29.357  26.418  0.00  0.00    +0.145 C 
BRANCH   5   6
ATOM      6  N   LYS A   1      23.847  29.885  26.032  0.00  0.00    -0.238 NA
ATOM      7  H   LYS A   1      23.579  30.825  26.387  0.00  0.00    +0.142 HD
ENDBRANCH   5   6
BRANCH   5   8
ATOM      8  CB  LYS A   1      25.985  28.939  25.191  0.00  0.00    +0.026 C 
BRANCH   8   9
ATOM      9  CG  LYS A   1      26.112  30.011  24.093  0.00  0.00    -0.000 C 
BRANCH   9  10
ATOM     10  CD  LYS A   1      26.751  29.449  22.822  0.00  0.00    -0.024 C 
BRANCH  10  11
ATOM     11  CE  LYS A   1      25.824  28.452  22.113  0.00  0.00    -0.086 C 
BRANCH  11  12
ATOM     12  NZ  LYS A   1      26.544  27.181  21.818  0.00  0.00    +0.380 N 
ATOM     13  HZ1 LYS A   1      26.876  26.758  22.708  0.00  0.00    -0.089 HD
ATOM     14  HZ2 LYS A   1      25.898  26.521  21.339  0.00  0.00    -0.089 HD
ATOM     15  HZ3 LYS A   1      27.358  27.380  21.202  0.00  0.00    -0.089 HD
ENDBRANCH  11  12
ENDBRANCH  10  11
ENDBRANCH   9  10
ENDBRANCH   8   9
ENDBRANCH   5   8
ENDBRANCH   1   5
BRANCH   2  16
ATOM     16  CA  ARG A   2      27.720  31.170  28.572  0.00  0.00    +0.137 C 
BRANCH  16  17
ATOM     17  C   ARG A   2      28.183  32.270  27.608  0.00  0.00    +0.227 C 
ATOM     18  O   ARG A   2      28.445  32.002  26.437  0.00  0.00    -0.286 OA
ENDBRANCH  16  17
BRANCH  16  19
ATOM     19  CB  ARG A   2      28.906  30.546  29.310  0.00  0.00    +0.031 C 
BRANCH  19  20
ATOM     20  CG  ARG A   2      28.508  29.730  30.538  0.00  0.00    +0.045 C 
BRANCH  20  21
ATOM     21  CD  ARG A   2      27.924  30.609  31.654  0.00  0.00    +0.174 C 
BRANCH  21  22
ATOM     22  NE  ARG A   2      28.907  31.563  32.178  0.00  0.00    -0.265 N 
ATOM     23  CZ  ARG A   2      29.636  31.375  33.278  0.00  0.00    +0.342 C 
ATOM     24  NH2 ARG A   2      29.502  30.267  34.005  0.00  0.00    -0.292 N 
ATOM     25 HH21 ARG A   2      30.078  30.134  34.861  0.00  0.00    +0.255 HD
ATOM     26 HH22 ARG A   2      28.822  29.535  33.717  0.00  0.00    +0.255 HD
ATOM     27  NH1 ARG A   2      30.499  32.308  33.659  0.00  0.00    -0.292 N 
ATOM     28 HH11 ARG A   2      31.071  32.168  34.516  0.00  0.00    +0.255 HD
ATOM     29 HH12 ARG A   2      30.603  33.179  33.101  0.00  0.00    +0.255 HD
ATOM     30  HE  ARG A   2      29.045  32.450  31.653  0.00  0.00    +0.259 HD
ENDBRANCH  21  22
ENDBRANCH  20  21
ENDBRANCH  19  20
ENDBRANCH  16  19
ENDBRANCH   2  16
TORSDOF 13
REMARK  Name = ../refined-set-2016/2qrg/2qrg_pocket.pdb
REMARK  263 active torsions:
REMARK  status: ('A' for Active; 'I' for Inactive)
REMARK    1  A    between atoms: _1  and  _3
REMARK    2  A    between atoms: _3  and  _4
REMARK    3  A    between atoms: _3  and  _6
REMARK    4  A    between atoms: _6  and  _7
REMARK    5  A    between atoms: _12  and  _13
REMARK    6  A    between atoms: _15  and  _17
REMARK    7  A    between atoms: _17  and  _18
REMARK    8  A    between atoms: _17  and  _20
REMARK    9  A    between atoms: _20  and  _21
REMARK   10  A    between atoms: _24  and  _26
REMARK   11  A    between atoms: _26  and  _27
REMARK   12  A    between atoms: _26  and  _29
REMARK   13  A    between atoms: _29  and  _30
REMARK   14  A    between atoms: _30  and  _31
REMARK   15  A    between atoms: _34  and  _36
REMARK   16  A    between atoms: _36  and  _37
REMARK   17  A    between atoms: _36  and  _39
REMARK   18  A    between atoms: _39  and  _40
REMARK   19  A    between atoms: _45  and  _47
REMARK   20  A    between atoms: _47  and  _48
REMARK   21  A    between atoms: _50  and  _52
REMARK   22  A    between atoms: _52  and  _53
REMARK   23  A    between atoms: _55  and  _57
REMARK   24  A    between atoms: _57  and  _58
REMARK   25  A    between atoms: _57  and  _60
REMARK   26  A    between atoms: _60  and  _61
REMARK   27  A    between atoms: _64  and  _66
REMARK   28  A    between atoms: _66  and  _67
REMARK   29  A    between atoms: _69  and  _71
REMARK   30  A    between atoms: _71  and  _72
REMARK   31  A    between atoms: _71  and  _74
REMARK   32  A    between atoms: _74  and  _75
REMARK   33  A    between atoms: _75  and  _76
REMARK   34  A    between atoms: _76  and  _77
REMARK   35  A    between atoms: _86  and  _88
REMARK   36  A    between atoms: _88  and  _89
REMARK   37  A    between atoms: _88  and  _91
REMARK   38  A    between atoms: _91  and  _92
REMARK   39  A    between atoms: _95  and  _97
REMARK   40  A    between atoms: _97  and  _98
REMARK   41  A    between atoms: _101  and  _103
REMARK   42  A    between atoms: _103  and  _104
REMARK   43  A    between atoms: _103  and  _106
REMARK   44  A    between atoms: _106  and  _107
REMARK   45  A    between atoms: _113  and  _115
REMARK   46  A    between atoms: _115  and  _116
REMARK   47  A    between atoms: _115  and  _118
REMARK   48  A    between atoms: _118  and  _119
REMARK   49  A    between atoms: _122  and  _124
REMARK   50  A    between atoms: _124  and  _125
REMARK   51  A    between atoms: _124  and  _127
REMARK   52  A    between atoms: _127  and  _128
REMARK   53  A    between atoms: _133  and  _134
REMARK   54  A    between atoms: _137  and  _138
REMARK   55  A    between atoms: _143  and  _145
REMARK   56  A    between atoms: _145  and  _146
REMARK   57  A    between atoms: _145  and  _148
REMARK   58  A    between atoms: _148  and  _149
REMARK   59  A    between atoms: _154  and  _156
REMARK   60  A    between atoms: _156  and  _157
REMARK   61  A    between atoms: _156  and  _159
REMARK   62  A    between atoms: _159  and  _160
REMARK   63  A    between atoms: _163  and  _165
REMARK   64  A    between atoms: _165  and  _166
REMARK   65  A    between atoms: _165  and  _168
REMARK   66  A    between atoms: _168  and  _169
REMARK   67  A    between atoms: _174  and  _176
REMARK   68  A    between atoms: _176  and  _177
REMARK   69  A    between atoms: _176  and  _179
REMARK   70  A    between atoms: _179  and  _180
REMARK   71  A    between atoms: _186  and  _188
REMARK   72  A    between atoms: _188  and  _189
REMARK   73  A    between atoms: _188  and  _191
REMARK   74  A    between atoms: _191  and  _192
REMARK   75  A    between atoms: _198  and  _200
REMARK   76  A    between atoms: _200  and  _201
REMARK   77  A    between atoms: _200  and  _203
REMARK   78  A    between atoms: _203  and  _204
REMARK   79  A    between atoms: _204  and  _205
REMARK   80  A    between atoms: _208  and  _210
REMARK   81  A    between atoms: _210  and  _211
REMARK   82  A    between atoms: _210  and  _213
REMARK   83  A    between atoms: _213  and  _214
REMARK   84  A    between atoms: _214  and  _215
REMARK   85  A    between atoms: _215  and  _216
REMARK   86  A    between atoms: _225  and  _227
REMARK   87  A    between atoms: _227  and  _228
REMARK   88  A    between atoms: _227  and  _230
REMARK   89  A    between atoms: _230  and  _231
REMARK   90  A    between atoms: _231  and  _232
REMARK   91  A    between atoms: _235  and  _237
REMARK   92  A    between atoms: _237  and  _238
REMARK   93  A    between atoms: _237  and  _240
REMARK   94  A    between atoms: _240  and  _241
REMARK   95  A    between atoms: _246  and  _248
REMARK   96  A    between atoms: _248  and  _249
REMARK   97  A    between atoms: _248  and  _251
REMARK   98  A    between atoms: _251  and  _252
REMARK   99  A    between atoms: _255  and  _257
REMARK  100  A    between atoms: _257  and  _258
REMARK  101  A    between atoms: _257  and  _260
REMARK  102  A    between atoms: _260  and  _261
REMARK  103  A    between atoms: _264  and  _266
REMARK  104  A    between atoms: _266  and  _267
REMARK  105  A    between atoms: _266  and  _269
REMARK  106  A    between atoms: _269  and  _270
REMARK  107  A    between atoms: _275  and  _277
REMARK  108  A    between atoms: _277  and  _278
REMARK  109  A    between atoms: _277  and  _280
REMARK  110  A    between atoms: _280  and  _281
REMARK  111  A    between atoms: _284  and  _286
REMARK  112  A    between atoms: _286  and  _287
REMARK  113  A    between atoms: _286  and  _289
REMARK  114  A    between atoms: _289  and  _290
REMARK  115  A    between atoms: _295  and  _297
REMARK  116  A    between atoms: _297  and  _298
REMARK  117  A    between atoms: _297  and  _300
REMARK  118  A    between atoms: _300  and  _301
REMARK  119  A    between atoms: _306  and  _308
REMARK  120  A    between atoms: _308  and  _309
REMARK  121  A    between atoms: _308  and  _311
REMARK  122  A    between atoms: _311  and  _312
REMARK  123  A    between atoms: _315  and  _317
REMARK  124  A    between atoms: _317  and  _318
REMARK  125  A    between atoms: _317  and  _320
REMARK  126  A    between atoms: _323  and  _325
REMARK  127  A    between atoms: _325  and  _326
REMARK  128  A    between atoms: _325  and  _328
REMARK  129  A    between atoms: _328  and  _329
REMARK  130  A    between atoms: _332  and  _334
REMARK  131  A    between atoms: _334  and  _335
REMARK  132  A    between atoms: _334  and  _337
REMARK  133  A    between atoms: _337  and  _338
REMARK  134  A    between atoms: _338  and  _339
REMARK  135  A    between atoms: _342  and  _344
REMARK  136  A    between atoms: _344  and  _345
REMARK  137  A    between atoms: _348  and  _350
REMARK  138  A    between atoms: _350  and  _351
REMARK  139  A    between atoms: _350  and  _353
REMARK  140  A    between atoms: _353  and  _354
REMARK  141  A    between atoms: _357  and  _359
REMARK  142  A    between atoms: _359  and  _360
REMARK  143  A    between atoms: _359  and  _362
REMARK  144  A    between atoms: _362  and  _363
REMARK  145  A    between atoms: _363  and  _364
REMARK  146  A    between atoms: _367  and  _369
REMARK  147  A    between atoms: _369  and  _370
REMARK  148  A    between atoms: _369  and  _372
REMARK  149  A    between atoms: _372  and  _373
REMARK  150  A    between atoms: _378  and  _380
REMARK  151  A    between atoms: _380  and  _381
REMARK  152  A    between atoms: _383  and  _385
REMARK  153  A    between atoms: _385  and  _386
REMARK  154  A    between atoms: _385  and  _388
REMARK  155  A    between atoms: _391  and  _393
REMARK  156  A    between atoms: _393  and  _394
REMARK  157  A    between atoms: _397  and  _399
REMARK  158  A    between atoms: _399  and  _400
REMARK  159  A    between atoms: _399  and  _402
REMARK  160  A    between atoms: _402  and  _403
REMARK  161  A    between atoms: _408  and  _410
REMARK  162  A    between atoms: _410  and  _411
REMARK  163  A    between atoms: _410  and  _413
REMARK  164  A    between atoms: _413  and  _414
REMARK  165  A    between atoms: _414  and  _415
REMARK  166  A    between atoms: _415  and  _416
REMARK  167  A    between atoms: _416  and  _417
REMARK  168  A    between atoms: _421  and  _423
REMARK  169  A    between atoms: _423  and  _424
REMARK  170  A    between atoms: _423  and  _426
REMARK  171  A    between atoms: _426  and  _427
REMARK  172  A    between atoms: _430  and  _432
REMARK  173  A    between atoms: _432  and  _433
REMARK  174  A    between atoms: _432  and  _435
REMARK  175  A    between atoms: _435  and  _436
REMARK  176  A    between atoms: _441  and  _443
REMARK  177  A    between atoms: _443  and  _444
REMARK  178  A    between atoms: _446  and  _448
REMARK  179  A    between atoms: _448  and  _449
REMARK  180  A    between atoms: _448  and  _451
REMARK  181  A    between atoms: _451  and  _452
REMARK  182  A    between atoms: _452  and  _453
REMARK  183  A    between atoms: _453  and  _454
REMARK  184  A    between atoms: _454  and  _455
REMARK  185  A    between atoms: _459  and  _461
REMARK  186  A    between atoms: _461  and  _462
REMARK  187  A    between atoms: _461  and  _464
REMARK  188  A    between atoms: _464  and  _465
REMARK  189  A    between atoms: _465  and  _466
REMARK  190  A    between atoms: _466  and  _467
REMARK  191  A    between atoms: _476  and  _478
REMARK  192  A    between atoms: _478  and  _479
REMARK  193  A    between atoms: _478  and  _481
REMARK  194  A    between atoms: _481  and  _482
REMARK  195  A    between atoms: _487  and  _488
REMARK  196  A    between atoms: _490  and  _492
REMARK  197  A    between atoms: _492  and  _493
REMARK  198  A    between atoms: _492  and  _495
REMARK  199  A    between atoms: _495  and  _496
REMARK  200  A    between atoms: _496  and  _497
REMARK  201  A    between atoms: _497  and  _498
REMARK  202  A    between atoms: _498  and  _499
REMARK  203  A    between atoms: _503  and  _505
REMARK  204  A    between atoms: _505  and  _506
REMARK  205  A    between atoms: _505  and  _508
REMARK  206  A    between atoms: _508  and  _509
REMARK  207  A    between atoms: _511  and  _513
REMARK  208  A    between atoms: _513  and  _514
REMARK  209  A    between atoms: _513  and  _516
REMARK  210  A    between atoms: _516  and  _517
REMARK  211  A    between atoms: _520  and  _522
REMARK  212  A    between atoms: _522  and  _523
REMARK  213  A    between atoms: _522  and  _525
REMARK  214  A    between atoms: _525  and  _526
REMARK  215  A    between atoms: _526  and  _527
REMARK  216  A    between atoms: _530  and  _532
REMARK  217  A    between atoms: _532  and  _533
REMARK  218  A    between atoms: _536  and  _538
REMARK  219  A    between atoms: _538  and  _539
REMARK  220  A    between atoms: _538  and  _541
REMARK  221  A    between atoms: _541  and  _542
REMARK  222  A    between atoms: _544  and  _546
REMARK  223  A    between atoms: _546  and  _547
REMARK  224  A    between atoms: _549  and  _551
REMARK  225  A    between atoms: _551  and  _552
REMARK  226  A    between atoms: _551  and  _554
REMARK  227  A    between atoms: _554  and  _555
REMARK  228  A    between atoms: _558  and  _560
REMARK  229  A    between atoms: _560  and  _561
REMARK  230  A    between atoms: _563  and  _565
REMARK  231  A    between atoms: _565  and  _566
REMARK  232  A    between atoms: _565  and  _568
REMARK  233  A    between atoms: _568  and  _569
REMARK  234  A    between atoms: _574  and  _576
REMARK  235  A    between atoms: _576  and  _577
REMARK  236  A    between atoms: _576  and  _579
REMARK  237  A    between atoms: _579  and  _580
REMARK  238  A    between atoms: _580  and  _581
REMARK  239  A    between atoms: _588  and  _589
REMARK  240  A    between atoms: _589  and  _605
REMARK  241  A    between atoms: _590  and  _592
REMARK  242  A    between atoms: _592  and  _593
REMARK  243  A    between atoms: _593  and  _594
REMARK  244  A    between atoms: _598  and  _600
REMARK  245  A    between atoms: _600  and  _601
REMARK  246  A    between atoms: _600  and  _608
REMARK  247  A    between atoms: _601  and  _602
REMARK  248  A    between atoms: _602  and  _603
REMARK  249  A    between atoms: _603  and  _604
REMARK  250  A    between atoms: _604  and  _605
REMARK  251  A    between atoms: _610  and  _612
REMARK  252  A    between atoms: _612  and  _613
REMARK  253  A    between atoms: _612  and  _615
REMARK  254  A    between atoms: _615  and  _616
REMARK  255  A    between atoms: _619  and  _621
REMARK  256  A    between atoms: _621  and  _622
REMARK  257  A    between atoms: _624  and  _626
REMARK  258  A    between atoms: _626  and  _627
REMARK  259  A    between atoms: _630  and  _632
REMARK  260  A    between atoms: _632  and  _633
REMARK  261  A    between atoms: _632  and  _635
REMARK  262  A    between atoms: _635  and  _636
REMARK  263  A    between atoms: _641  and  _642
REMARK                            x       y       z     vdW  Elec       q    Type
REMARK                         _______ _______ _______ _____ _____    ______ ____
ROOT
ATOM      1  C   TYR A   1      33.404  32.093  20.703  0.00  0.00    +0.239 C 
ATOM      2  N   LYS A   2      32.356  32.204  21.519  0.00  0.00    -0.298 N 
ATOM      3  H   LYS A   2      32.485  32.663  22.443  0.00  0.00    +0.150 HD
ATOM      4  O   TYR A   1      33.343  31.572  19.592  0.00  0.00    -0.274 OA
ENDROOT
BRANCH   1   5
ATOM      5  CA  TYR A   1      34.730  32.659  21.203  0.00  0.00    +0.149 C 
BRANCH   5   6
ATOM      6  N   TYR A   1      34.580  33.770  22.151  0.00  0.00    -0.238 NA
ATOM      7  H   TYR A   1      34.888  33.657  23.138  0.00  0.00    +0.142 HD
ENDBRANCH   5   6
BRANCH   5   8
ATOM      8  CB  TYR A   1      35.676  31.561  21.720  0.00  0.00    +0.053 C 
BRANCH   8   9
ATOM      9  CG  TYR A   1      35.066  30.441  22.539  0.00  0.00    -0.020 A 
ATOM     10  CD2 TYR A   1      35.106  30.475  23.931  0.00  0.00    -0.001 A 
ATOM     11  CE2 TYR A   1      34.576  29.442  24.693  0.00  0.00    +0.036 A 
ATOM     12  CZ  TYR A   1      34.008  28.347  24.069  0.00  0.00    +0.134 A 
ATOM     13  CE1 TYR A   1      33.968  28.274  22.681  0.00  0.00    +0.036 A 
ATOM     14  CD1 TYR A   1      34.505  29.317  21.923  0.00  0.00    -0.001 A 
BRANCH  12  15
ATOM     15  OH  TYR A   1      33.489  27.325  24.841  0.00  0.00    -0.506 OA
ATOM     16  HH  TYR A   1      33.122  26.620  24.250  0.00  0.00    +0.292 HD
ENDBRANCH  12  15
ENDBRANCH   8   9
ENDBRANCH   5   8
ENDBRANCH   1   5
BRANCH   2  17
ATOM     17  CA  LYS A   2      31.027  31.701  21.157  0.00  0.00    +0.137 C 
BRANCH  17  18
ATOM     18  C   LYS A   2      30.279  32.669  20.230  0.00  0.00    +0.227 C 
ATOM     19  O   LYS A   2      29.235  32.330  19.662  0.00  0.00    -0.286 OA
ENDBRANCH  17  18
BRANCH  17  20
ATOM     20  CB  LYS A   2      30.209  31.395  22.415  0.00  0.00    +0.028 C 
BRANCH  20  21
ATOM     21  CG  LYS A   2      30.730  30.185  23.208  0.00  0.00    -0.000 C 
BRANCH  21  22
ATOM     22  CD  LYS A   2      30.015  30.048  24.546  0.00  0.00    -0.024 C 
BRANCH  22  23
ATOM     23  CE  LYS A   2      30.629  28.968  25.427  0.00  0.00    -0.086 C 
BRANCH  23  24
ATOM     24  NZ  LYS A   2      30.245  27.574  25.013  0.00  0.00    +0.380 N 
ATOM     25  HZ1 LYS A   2      30.695  26.888  25.652  0.00  0.00    -0.089 HD
ATOM     26  HZ2 LYS A   2      29.211  27.471  25.064  0.00  0.00    -0.089 HD
ATOM     27  HZ3 LYS A   2      30.564  27.403  24.038  0.00  0.00    -0.089 HD
ENDBRANCH  23  24
ENDBRANCH  22  23
ENDBRANCH  21  22
ENDBRANCH  20  21
ENDBRANCH  17  20
ENDBRANCH   2  17
TORSDOF 12
REMARK  Name = ../refined-set-2016/2qrg/2qrg_pocket.pdb
REMARK  263 active torsions:
REMARK  status: ('A' for Active; 'I' for Inactive)
REMARK    1  A    between atoms: _1  and  _3
REMARK    2  A    between atoms: _3  and  _4
REMARK    3  A    between atoms: _3  and  _6
REMARK    4  A    between atoms: _6  and  _7
REMARK    5  A    between atoms: _12  and  _13
REMARK    6  A    between atoms: _15  and  _17
REMARK    7  A    between atoms: _17  and  _18
REMARK    8  A    between atoms: _17  and  _20
REMARK    9  A    between atoms: _20  and  _21
REMARK   10  A    between atoms: _24  and  _26
REMARK   11  A    between atoms: _26  and  _27
REMARK   12  A    between atoms: _26  and  _29
REMARK   13  A    between atoms: _29  and  _30
REMARK   14  A    between atoms: _30  and  _31
REMARK   15  A    between atoms: _34  and  _36
REMARK   16  A    between atoms: _36  and  _37
REMARK   17  A    between atoms: _36  and  _39
REMARK   18  A    between atoms: _39  and  _40
REMARK   19  A    between atoms: _45  and  _47
REMARK   20  A    between atoms: _47  and  _48
REMARK   21  A    between atoms: _50  and  _52
REMARK   22  A    between atoms: _52  and  _53
REMARK   23  A    between atoms: _55  and  _57
REMARK   24  A    between atoms: _57  and  _58
REMARK   25  A    between atoms: _57  and  _60
REMARK   26  A    between atoms: _60  and  _61
REMARK   27  A    between atoms: _64  and  _66
REMARK   28  A    between atoms: _66  and  _67
REMARK   29  A    between atoms: _69  and  _71
REMARK   30  A    between atoms: _71  and  _72
REMARK   31  A    between atoms: _71  and  _74
REMARK   32  A    between atoms: _74  and  _75
REMARK   33  A    between atoms: _75  and  _76
REMARK   34  A    between atoms: _76  and  _77
REMARK   35  A    between atoms: _86  and  _88
REMARK   36  A    between atoms: _88  and  _89
REMARK   37  A    between atoms: _88  and  _91
REMARK   38  A    between atoms: _91  and  _92
REMARK   39  A    between atoms: _95  and  _97
REMARK   40  A    between atoms: _97  and  _98
REMARK   41  A    between atoms: _101  and  _103
REMARK   42  A    between atoms: _103  and  _104
REMARK   43  A    between atoms: _103  and  _106
REMARK   44  A    between atoms: _106  and  _107
REMARK   45  A    between atoms: _113  and  _115
REMARK   46  A    between atoms: _115  and  _116
REMARK   47  A    between atoms: _115  and  _118
REMARK   48  A    between atoms: _118  and  _119
REMARK   49  A    between atoms: _122  and  _124
REMARK   50  A    between atoms: _124  and  _125
REMARK   51  A    between atoms: _124  and  _127
REMARK   52  A    between atoms: _127  and  _128
REMARK   53  A    between atoms: _133  and  _134
REMARK   54  A    between atoms: _137  and  _138
REMARK   55  A    between atoms: _143  and  _145
REMARK   56  A    between atoms: _145  and  _146
REMARK   57  A    between atoms: _145  and  _148
REMARK   58  A    between atoms: _148  and  _149
REMARK   59  A    between atoms: _154  and  _156
REMARK   60  A    between atoms: _156  and  _157
REMARK   61  A    between atoms: _156  and  _159
REMARK   62  A    between atoms: _159  and  _160
REMARK   63  A    between atoms: _163  and  _165
REMARK   64  A    between atoms: _165  and  _166
REMARK   65  A    between atoms: _165  and  _168
REMARK   66  A    between atoms: _168  and  _169
REMARK   67  A    between atoms: _174  and  _176
REMARK   68  A    between atoms: _176  and  _177
REMARK   69  A    between atoms: _176  and  _179
REMARK   70  A    between atoms: _179  and  _180
REMARK   71  A    between atoms: _186  and  _188
REMARK   72  A    between atoms: _188  and  _189
REMARK   73  A    between atoms: _188  and  _191
REMARK   74  A    between atoms: _191  and  _192
REMARK   75  A    between atoms: _198  and  _200
REMARK   76  A    between atoms: _200  and  _201
REMARK   77  A    between atoms: _200  and  _203
REMARK   78  A    between atoms: _203  and  _204
REMARK   79  A    between atoms: _204  and  _205
REMARK   80  A    between atoms: _208  and  _210
REMARK   81  A    between atoms: _210  and  _211
REMARK   82  A    between atoms: _210  and  _213
REMARK   83  A    between atoms: _213  and  _214
REMARK   84  A    between atoms: _214  and  _215
REMARK   85  A    between atoms: _215  and  _216
REMARK   86  A    between atoms: _225  and  _227
REMARK   87  A    between atoms: _227  and  _228
REMARK   88  A    between atoms: _227  and  _230
REMARK   89  A    between atoms: _230  and  _231
REMARK   90  A    between atoms: _231  and  _232
REMARK   91  A    between atoms: _235  and  _237
REMARK   92  A    between atoms: _237  and  _238
REMARK   93  A    between atoms: _237  and  _240
REMARK   94  A    between atoms: _240  and  _241
REMARK   95  A    between atoms: _246  and  _248
REMARK   96  A    between atoms: _248  and  _249
REMARK   97  A    between atoms: _248  and  _251
REMARK   98  A    between atoms: _251  and  _252
REMARK   99  A    between atoms: _255  and  _257
REMARK  100  A    between atoms: _257  and  _258
REMARK  101  A    between atoms: _257  and  _260
REMARK  102  A    between atoms: _260  and  _261
REMARK  103  A    between atoms: _264  and  _266
REMARK  104  A    between atoms: _266  and  _267
REMARK  105  A    between atoms: _266  and  _269
REMARK  106  A    between atoms: _269  and  _270
REMARK  107  A    between atoms: _275  and  _277
REMARK  108  A    between atoms: _277  and  _278
REMARK  109  A    between atoms: _277  and  _280
REMARK  110  A    between atoms: _280  and  _281
REMARK  111  A    between atoms: _284  and  _286
REMARK  112  A    between atoms: _286  and  _287
REMARK  113  A    between atoms: _286  and  _289
REMARK  114  A    between atoms: _289  and  _290
REMARK  115  A    between atoms: _295  and  _297
REMARK  116  A    between atoms: _297  and  _298
REMARK  117  A    between atoms: _297  and  _300
REMARK  118  A    between atoms: _300  and  _301
REMARK  119  A    between atoms: _306  and  _308
REMARK  120  A    between atoms: _308  and  _309
REMARK  121  A    between atoms: _308  and  _311
REMARK  122  A    between atoms: _311  and  _312
REMARK  123  A    between atoms: _315  and  _317
REMARK  124  A    between atoms: _317  and  _318
REMARK  125  A    between atoms: _317  and  _320
REMARK  126  A    between atoms: _323  and  _325
REMARK  127  A    between atoms: _325  and  _326
REMARK  128  A    between atoms: _325  and  _328
REMARK  129  A    between atoms: _328  and  _329
REMARK  130  A    between atoms: _332  and  _334
REMARK  131  A    between atoms: _334  and  _335
REMARK  132  A    between atoms: _334  and  _337
REMARK  133  A    between atoms: _337  and  _338
REMARK  134  A    between atoms: _338  and  _339
REMARK  135  A    between atoms: _342  and  _344
REMARK  136  A    between atoms: _344  and  _345
REMARK  137  A    between atoms: _348  and  _350
REMARK  138  A    between atoms: _350  and  _351
REMARK  139  A    between atoms: _350  and  _353
REMARK  140  A    between atoms: _353  and  _354
REMARK  141  A    between atoms: _357  and  _359
REMARK  142  A    between atoms: _359  and  _360
REMARK  143  A    between atoms: _359  and  _362
REMARK  144  A    between atoms: _362  and  _363
REMARK  145  A    between atoms: _363  and  _364
REMARK  146  A    between atoms: _367  and  _369
REMARK  147  A    between atoms: _369  and  _370
REMARK  148  A    between atoms: _369  and  _372
REMARK  149  A    between atoms: _372  and  _373
REMARK  150  A    between atoms: _378  and  _380
REMARK  151  A    between atoms: _380  and  _381
REMARK  152  A    between atoms: _383  and  _385
REMARK  153  A    between atoms: _385  and  _386
REMARK  154  A    between atoms: _385  and  _388
REMARK  155  A    between atoms: _391  and  _393
REMARK  156  A    between atoms: _393  and  _394
REMARK  157  A    between atoms: _397  and  _399
REMARK  158  A    between atoms: _399  and  _400
REMARK  159  A    between atoms: _399  and  _402
REMARK  160  A    between atoms: _402  and  _403
REMARK  161  A    between atoms: _408  and  _410
REMARK  162  A    between atoms: _410  and  _411
REMARK  163  A    between atoms: _410  and  _413
REMARK  164  A    between atoms: _413  and  _414
REMARK  165  A    between atoms: _414  and  _415
REMARK  166  A    between atoms: _415  and  _416
REMARK  167  A    between atoms: _416  and  _417
REMARK  168  A    between atoms: _421  and  _423
REMARK  169  A    between atoms: _423  and  _424
REMARK  170  A    between atoms: _423  and  _426
REMARK  171  A    between atoms: _426  and  _427
REMARK  172  A    between atoms: _430  and  _432
REMARK  173  A    between atoms: _432  and  _433
REMARK  174  A    between atoms: _432  and  _435
REMARK  175  A    between atoms: _435  and  _436
REMARK  176  A    between atoms: _441  and  _443
REMARK  177  A    between atoms: _443  and  _444
REMARK  178  A    between atoms: _446  and  _448
REMARK  179  A    between atoms: _448  and  _449
REMARK  180  A    between atoms: _448  and  _451
REMARK  181  A    between atoms: _451  and  _452
REMARK  182  A    between atoms: _452  and  _453
REMARK  183  A    between atoms: _453  and  _454
REMARK  184  A    between atoms: _454  and  _455
REMARK  185  A    between atoms: _459  and  _461
REMARK  186  A    between atoms: _461  and  _462
REMARK  187  A    between atoms: _461  and  _464
REMARK  188  A    between atoms: _464  and  _465
REMARK  189  A    between atoms: _465  and  _466
REMARK  190  A    between atoms: _466  and  _467
REMARK  191  A    between atoms: _476  and  _478
REMARK  192  A    between atoms: _478  and  _479
REMARK  193  A    between atoms: _478  and  _481
REMARK  194  A    between atoms: _481  and  _482
REMARK  195  A    between atoms: _487  and  _488
REMARK  196  A    between atoms: _490  and  _492
REMARK  197  A    between atoms: _492  and  _493
REMARK  198  A    between atoms: _492  and  _495
REMARK  199  A    between atoms: _495  and  _496
REMARK  200  A    between atoms: _496  and  _497
REMARK  201  A    between atoms: _497  and  _498
REMARK  202  A    between atoms: _498  and  _499
REMARK  203  A    between atoms: _503  and  _505
REMARK  204  A    between atoms: _505  and  _506
REMARK  205  A    between atoms: _505  and  _508
REMARK  206  A    between atoms: _508  and  _509
REMARK  207  A    between atoms: _511  and  _513
REMARK  208  A    between atoms: _513  and  _514
REMARK  209  A    between atoms: _513  and  _516
REMARK  210  A    between atoms: _516  and  _517
REMARK  211  A    between atoms: _520  and  _522
REMARK  212  A    between atoms: _522  and  _523
REMARK  213  A    between atoms: _522  and  _525
REMARK  214  A    between atoms: _525  and  _526
REMARK  215  A    between atoms: _526  and  _527
REMARK  216  A    between atoms: _530  and  _532
REMARK  217  A    between atoms: _532  and  _533
REMARK  218  A    between atoms: _536  and  _538
REMARK  219  A    between atoms: _538  and  _539
REMARK  220  A    between atoms: _538  and  _541
REMARK  221  A    between atoms: _541  and  _542
REMARK  222  A    between atoms: _544  and  _546
REMARK  223  A    between atoms: _546  and  _547
REMARK  224  A    between atoms: _549  and  _551
REMARK  225  A    between atoms: _551  and  _552
REMARK  226  A    between atoms: _551  and  _554
REMARK  227  A    between atoms: _554  and  _555
REMARK  228  A    between atoms: _558  and  _560
REMARK  229  A    between atoms: _560  and  _561
REMARK  230  A    between atoms: _563  and  _565
REMARK  231  A    between atoms: _565  and  _566
REMARK  232  A    between atoms: _565  and  _568
REMARK  233  A    between atoms: _568  and  _569
REMARK  234  A    between atoms: _574  and  _576
REMARK  235  A    between atoms: _576  and  _577
REMARK  236  A    between atoms: _576  and  _579
REMARK  237  A    between atoms: _579  and  _580
REMARK  238  A    between atoms: _580  and  _581
REMARK  239  A    between atoms: _588  and  _589
REMARK  240  A    between atoms: _589  and  _605
REMARK  241  A    between atoms: _590  and  _592
REMARK  242  A    between atoms: _592  and  _593
REMARK  243  A    between atoms: _593  and  _594
REMARK  244  A    between atoms: _598  and  _600
REMARK  245  A    between atoms: _600  and  _601
REMARK  246  A    between atoms: _600  and  _608
REMARK  247  A    between atoms: _601  and  _602
REMARK  248  A    between atoms: _602  and  _603
REMARK  249  A    between atoms: _603  and  _604
REMARK  250  A    between atoms: _604  and  _605
REMARK  251  A    between atoms: _610  and  _612
REMARK  252  A    between atoms: _612  and  _613
REMARK  253  A    between atoms: _612  and  _615
REMARK  254  A    between atoms: _615  and  _616
REMARK  255  A    between atoms: _619  and  _621
REMARK  256  A    between atoms: _621  and  _622
REMARK  257  A    between atoms: _624  and  _626
REMARK  258  A    between atoms: _626  and  _627
REMARK  259  A    between atoms: _630  and  _632
REMARK  260  A    between atoms: _632  and  _633
REMARK  261  A    between atoms: _632  and  _635
REMARK  262  A    between atoms: _635  and  _636
REMARK  263  A    between atoms: _641  and  _642
REMARK                            x       y       z     vdW  Elec       q    Type
REMARK                         _______ _______ _______ _____ _____    ______ ____
ROOT
ATOM      1  CA  SER A   1      31.766  29.548  17.472  0.00  0.00    +0.163 C 
ENDROOT
BRANCH   1   2
ATOM      2  N   SER A   1      30.386  29.339  17.023  0.00  0.00    -0.237 NA
ATOM      3  H   SER A   1      29.875  28.499  17.361  0.00  0.00    +0.142 HD
ENDBRANCH   1   2
BRANCH   1   4
ATOM      4  C   SER A   1      32.740  29.546  16.289  0.00  0.00    +0.227 C 
ATOM      5  O   SER A   1      32.505  28.883  15.283  0.00  0.00    -0.287 OA
ENDBRANCH   1   4
BRANCH   1   6
ATOM      6  CB  SER A   1      32.157  28.447  18.451  0.00  0.00    +0.162 C 
BRANCH   6   7
ATOM      7  OG  SER A   1      31.922  27.169  17.875  0.00  0.00    -0.380 OA
ATOM      8  H   SER A   1      30.961  27.080  17.654  0.00  0.00    +0.211 HD
ENDBRANCH   6   7
ENDBRANCH   1   6
TORSDOF 4
REMARK  Name = ../refined-set-2016/2qrg/2qrg_pocket.pdb
REMARK  263 active torsions:
REMARK  status: ('A' for Active; 'I' for Inactive)
REMARK    1  A    between atoms: _1  and  _3
REMARK    2  A    between atoms: _3  and  _4
REMARK    3  A    between atoms: _3  and  _6
REMARK    4  A    between atoms: _6  and  _7
REMARK    5  A    between atoms: _12  and  _13
REMARK    6  A    between atoms: _15  and  _17
REMARK    7  A    between atoms: _17  and  _18
REMARK    8  A    between atoms: _17  and  _20
REMARK    9  A    between atoms: _20  and  _21
REMARK   10  A    between atoms: _24  and  _26
REMARK   11  A    between atoms: _26  and  _27
REMARK   12  A    between atoms: _26  and  _29
REMARK   13  A    between atoms: _29  and  _30
REMARK   14  A    between atoms: _30  and  _31
REMARK   15  A    between atoms: _34  and  _36
REMARK   16  A    between atoms: _36  and  _37
REMARK   17  A    between atoms: _36  and  _39
REMARK   18  A    between atoms: _39  and  _40
REMARK   19  A    between atoms: _45  and  _47
REMARK   20  A    between atoms: _47  and  _48
REMARK   21  A    between atoms: _50  and  _52
REMARK   22  A    between atoms: _52  and  _53
REMARK   23  A    between atoms: _55  and  _57
REMARK   24  A    between atoms: _57  and  _58
REMARK   25  A    between atoms: _57  and  _60
REMARK   26  A    between atoms: _60  and  _61
REMARK   27  A    between atoms: _64  and  _66
REMARK   28  A    between atoms: _66  and  _67
REMARK   29  A    between atoms: _69  and  _71
REMARK   30  A    between atoms: _71  and  _72
REMARK   31  A    between atoms: _71  and  _74
REMARK   32  A    between atoms: _74  and  _75
REMARK   33  A    between atoms: _75  and  _76
REMARK   34  A    between atoms: _76  and  _77
REMARK   35  A    between atoms: _86  and  _88
REMARK   36  A    between atoms: _88  and  _89
REMARK   37  A    between atoms: _88  and  _91
REMARK   38  A    between atoms: _91  and  _92
REMARK   39  A    between atoms: _95  and  _97
REMARK   40  A    between atoms: _97  and  _98
REMARK   41  A    between atoms: _101  and  _103
REMARK   42  A    between atoms: _103  and  _104
REMARK   43  A    between atoms: _103  and  _106
REMARK   44  A    between atoms: _106  and  _107
REMARK   45  A    between atoms: _113  and  _115
REMARK   46  A    between atoms: _115  and  _116
REMARK   47  A    between atoms: _115  and  _118
REMARK   48  A    between atoms: _118  and  _119
REMARK   49  A    between atoms: _122  and  _124
REMARK   50  A    between atoms: _124  and  _125
REMARK   51  A    between atoms: _124  and  _127
REMARK   52  A    between atoms: _127  and  _128
REMARK   53  A    between atoms: _133  and  _134
REMARK   54  A    between atoms: _137  and  _138
REMARK   55  A    between atoms: _143  and  _145
REMARK   56  A    between atoms: _145  and  _146
REMARK   57  A    between atoms: _145  and  _148
REMARK   58  A    between atoms: _148  and  _149
REMARK   59  A    between atoms: _154  and  _156
REMARK   60  A    between atoms: _156  and  _157
REMARK   61  A    between atoms: _156  and  _159
REMARK   62  A    between atoms: _159  and  _160
REMARK   63  A    between atoms: _163  and  _165
REMARK   64  A    between atoms: _165  and  _166
REMARK   65  A    between atoms: _165  and  _168
REMARK   66  A    between atoms: _168  and  _169
REMARK   67  A    between atoms: _174  and  _176
REMARK   68  A    between atoms: _176  and  _177
REMARK   69  A    between atoms: _176  and  _179
REMARK   70  A    between atoms: _179  and  _180
REMARK   71  A    between atoms: _186  and  _188
REMARK   72  A    between atoms: _188  and  _189
REMARK   73  A    between atoms: _188  and  _191
REMARK   74  A    between atoms: _191  and  _192
REMARK   75  A    between atoms: _198  and  _200
REMARK   76  A    between atoms: _200  and  _201
REMARK   77  A    between atoms: _200  and  _203
REMARK   78  A    between atoms: _203  and  _204
REMARK   79  A    between atoms: _204  and  _205
REMARK   80  A    between atoms: _208  and  _210
REMARK   81  A    between atoms: _210  and  _211
REMARK   82  A    between atoms: _210  and  _213
REMARK   83  A    between atoms: _213  and  _214
REMARK   84  A    between atoms: _214  and  _215
REMARK   85  A    between atoms: _215  and  _216
REMARK   86  A    between atoms: _225  and  _227
REMARK   87  A    between atoms: _227  and  _228
REMARK   88  A    between atoms: _227  and  _230
REMARK   89  A    between atoms: _230  and  _231
REMARK   90  A    between atoms: _231  and  _232
REMARK   91  A    between atoms: _235  and  _237
REMARK   92  A    between atoms: _237  and  _238
REMARK   93  A    between atoms: _237  and  _240
REMARK   94  A    between atoms: _240  and  _241
REMARK   95  A    between atoms: _246  and  _248
REMARK   96  A    between atoms: _248  and  _249
REMARK   97  A    between atoms: _248  and  _251
REMARK   98  A    between atoms: _251  and  _252
REMARK   99  A    between atoms: _255  and  _257
REMARK  100  A    between atoms: _257  and  _258
REMARK  101  A    between atoms: _257  and  _260
REMARK  102  A    between atoms: _260  and  _261
REMARK  103  A    between atoms: _264  and  _266
REMARK  104  A    between atoms: _266  and  _267
REMARK  105  A    between atoms: _266  and  _269
REMARK  106  A    between atoms: _269  and  _270
REMARK  107  A    between atoms: _275  and  _277
REMARK  108  A    between atoms: _277  and  _278
REMARK  109  A    between atoms: _277  and  _280
REMARK  110  A    between atoms: _280  and  _281
REMARK  111  A    between atoms: _284  and  _286
REMARK  112  A    between atoms: _286  and  _287
REMARK  113  A    between atoms: _286  and  _289
REMARK  114  A    between atoms: _289  and  _290
REMARK  115  A    between atoms: _295  and  _297
REMARK  116  A    between atoms: _297  and  _298
REMARK  117  A    between atoms: _297  and  _300
REMARK  118  A    between atoms: _300  and  _301
REMARK  119  A    between atoms: _306  and  _308
REMARK  120  A    between atoms: _308  and  _309
REMARK  121  A    between atoms: _308  and  _311
REMARK  122  A    between atoms: _311  and  _312
REMARK  123  A    between atoms: _315  and  _317
REMARK  124  A    between atoms: _317  and  _318
REMARK  125  A    between atoms: _317  and  _320
REMARK  126  A    between atoms: _323  and  _325
REMARK  127  A    between atoms: _325  and  _326
REMARK  128  A    between atoms: _325  and  _328
REMARK  129  A    between atoms: _328  and  _329
REMARK  130  A    between atoms: _332  and  _334
REMARK  131  A    between atoms: _334  and  _335
REMARK  132  A    between atoms: _334  and  _337
REMARK  133  A    between atoms: _337  and  _338
REMARK  134  A    between atoms: _338  and  _339
REMARK  135  A    between atoms: _342  and  _344
REMARK  136  A    between atoms: _344  and  _345
REMARK  137  A    between atoms: _348  and  _350
REMARK  138  A    between atoms: _350  and  _351
REMARK  139  A    between atoms: _350  and  _353
REMARK  140  A    between atoms: _353  and  _354
REMARK  141  A    between atoms: _357  and  _359
REMARK  142  A    between atoms: _359  and  _360
REMARK  143  A    between atoms: _359  and  _362
REMARK  144  A    between atoms: _362  and  _363
REMARK  145  A    between atoms: _363  and  _364
REMARK  146  A    between atoms: _367  and  _369
REMARK  147  A    between atoms: _369  and  _370
REMARK  148  A    between atoms: _369  and  _372
REMARK  149  A    between atoms: _372  and  _373
REMARK  150  A    between atoms: _378  and  _380
REMARK  151  A    between atoms: _380  and  _381
REMARK  152  A    between atoms: _383  and  _385
REMARK  153  A    between atoms: _385  and  _386
REMARK  154  A    between atoms: _385  and  _388
REMARK  155  A    between atoms: _391  and  _393
REMARK  156  A    between atoms: _393  and  _394
REMARK  157  A    between atoms: _397  and  _399
REMARK  158  A    between atoms: _399  and  _400
REMARK  159  A    between atoms: _399  and  _402
REMARK  160  A    between atoms: _402  and  _403
REMARK  161  A    between atoms: _408  and  _410
REMARK  162  A    between atoms: _410  and  _411
REMARK  163  A    between atoms: _410  and  _413
REMARK  164  A    between atoms: _413  and  _414
REMARK  165  A    between atoms: _414  and  _415
REMARK  166  A    between atoms: _415  and  _416
REMARK  167  A    between atoms: _416  and  _417
REMARK  168  A    between atoms: _421  and  _423
REMARK  169  A    between atoms: _423  and  _424
REMARK  170  A    between atoms: _423  and  _426
REMARK  171  A    between atoms: _426  and  _427
REMARK  172  A    between atoms: _430  and  _432
REMARK  173  A    between atoms: _432  and  _433
REMARK  174  A    between atoms: _432  and  _435
REMARK  175  A    between atoms: _435  and  _436
REMARK  176  A    between atoms: _441  and  _443
REMARK  177  A    between atoms: _443  and  _444
REMARK  178  A    between atoms: _446  and  _448
REMARK  179  A    between atoms: _448  and  _449
REMARK  180  A    between atoms: _448  and  _451
REMARK  181  A    between atoms: _451  and  _452
REMARK  182  A    between atoms: _452  and  _453
REMARK  183  A    between atoms: _453  and  _454
REMARK  184  A    between atoms: _454  and  _455
REMARK  185  A    between atoms: _459  and  _461
REMARK  186  A    between atoms: _461  and  _462
REMARK  187  A    between atoms: _461  and  _464
REMARK  188  A    between atoms: _464  and  _465
REMARK  189  A    between atoms: _465  and  _466
REMARK  190  A    between atoms: _466  and  _467
REMARK  191  A    between atoms: _476  and  _478
REMARK  192  A    between atoms: _478  and  _479
REMARK  193  A    between atoms: _478  and  _481
REMARK  194  A    between atoms: _481  and  _482
REMARK  195  A    between atoms: _487  and  _488
REMARK  196  A    between atoms: _490  and  _492
REMARK  197  A    between atoms: _492  and  _493
REMARK  198  A    between atoms: _492  and  _495
REMARK  199  A    between atoms: _495  and  _496
REMARK  200  A    between atoms: _496  and  _497
REMARK  201  A    between atoms: _497  and  _498
REMARK  202  A    between atoms: _498  and  _499
REMARK  203  A    between atoms: _503  and  _505
REMARK  204  A    between atoms: _505  and  _506
REMARK  205  A    between atoms: _505  and  _508
REMARK  206  A    between atoms: _508  and  _509
REMARK  207  A    between atoms: _511  and  _513
REMARK  208  A    between atoms: _513  and  _514
REMARK  209  A    between atoms: _513  and  _516
REMARK  210  A    between atoms: _516  and  _517
REMARK  211  A    between atoms: _520  and  _522
REMARK  212  A    between atoms: _522  and  _523
REMARK  213  A    between atoms: _522  and  _525
REMARK  214  A    between atoms: _525  and  _526
REMARK  215  A    between atoms: _526  and  _527
REMARK  216  A    between atoms: _530  and  _532
REMARK  217  A    between atoms: _532  and  _533
REMARK  218  A    between atoms: _536  and  _538
REMARK  219  A    between atoms: _538  and  _539
REMARK  220  A    between atoms: _538  and  _541
REMARK  221  A    between atoms: _541  and  _542
REMARK  222  A    between atoms: _544  and  _546
REMARK  223  A    between atoms: _546  and  _547
REMARK  224  A    between atoms: _549  and  _551
REMARK  225  A    between atoms: _551  and  _552
REMARK  226  A    between atoms: _551  and  _554
REMARK  227  A    between atoms: _554  and  _555
REMARK  228  A    between atoms: _558  and  _560
REMARK  229  A    between atoms: _560  and  _561
REMARK  230  A    between atoms: _563  and  _565
REMARK  231  A    between atoms: _565  and  _566
REMARK  232  A    between atoms: _565  and  _568
REMARK  233  A    between atoms: _568  and  _569
REMARK  234  A    between atoms: _574  and  _576
REMARK  235  A    between atoms: _576  and  _577
REMARK  236  A    between atoms: _576  and  _579
REMARK  237  A    between atoms: _579  and  _580
REMARK  238  A    between atoms: _580  and  _581
REMARK  239  A    between atoms: _588  and  _589
REMARK  240  A    between atoms: _589  and  _605
REMARK  241  A    between atoms: _590  and  _592
REMARK  242  A    between atoms: _592  and  _593
REMARK  243  A    between atoms: _593  and  _594
REMARK  244  A    between atoms: _598  and  _600
REMARK  245  A    between atoms: _600  and  _601
REMARK  246  A    between atoms: _600  and  _608
REMARK  247  A    between atoms: _601  and  _602
REMARK  248  A    between atoms: _602  and  _603
REMARK  249  A    between atoms: _603  and  _604
REMARK  250  A    between atoms: _604  and  _605
REMARK  251  A    between atoms: _610  and  _612
REMARK  252  A    between atoms: _612  and  _613
REMARK  253  A    between atoms: _612  and  _615
REMARK  254  A    between atoms: _615  and  _616
REMARK  255  A    between atoms: _619  and  _621
REMARK  256  A    between atoms: _621  and  _622
REMARK  257  A    between atoms: _624  and  _626
REMARK  258  A    between atoms: _626  and  _627
REMARK  259  A    between atoms: _630  and  _632
REMARK  260  A    between atoms: _632  and  _633
REMARK  261  A    between atoms: _632  and  _635
REMARK  262  A    between atoms: _635  and  _636
REMARK  263  A    between atoms: _641  and  _642
REMARK                            x       y       z     vdW  Elec       q    Type
REMARK                         _______ _______ _______ _____ _____    ______ ____
ROOT
ATOM      1  CA  GLY A   7      23.763  22.513  23.897  0.00  0.00    +0.176 C 
ENDROOT
BRANCH   1   2
ATOM      2  C   GLY A   7      23.296  22.184  22.488  0.00  0.00    +0.243 C 
ATOM      3  O   GLY A   7      22.100  21.941  22.257  0.00  0.00    -0.273 OA
ATOM      4  N   ASN A   8      24.244  22.161  21.548  0.00  0.00    -0.297 N 
ATOM      5  H   ASN A   8      25.210  22.451  21.801  0.00  0.00    +0.150 HD
BRANCH   4   6
ATOM      6  CA  ASN A   8      23.966  21.739  20.167  0.00  0.00    +0.158 C 
BRANCH   6   7
ATOM      7  C   ASN A   8      23.183  20.421  20.047  0.00  0.00    +0.241 C 
ATOM      8  N   MET A   9      23.586  19.427  20.834  0.00  0.00    -0.297 N 
ATOM      9  H   MET A   9      24.388  19.593  21.475  0.00  0.00    +0.150 HD
ATOM     10  O   ASN A   8      22.224  20.325  19.270  0.00  0.00    -0.273 OA
BRANCH   8  11
ATOM     11  CA  MET A   9      22.948  18.109  20.835  0.00  0.00    +0.149 C 
BRANCH  11  12
ATOM     12  C   MET A   9      21.543  18.155  21.427  0.00  0.00    +0.241 C 
ATOM     13  N   UNK A  10      21.369  18.953  22.484  0.00  0.00    -0.298 N 
ATOM     14  H   UNK A  10      22.192  19.459  22.869  0.00  0.00    +0.150 HD
ATOM     15  O   MET A   9      20.635  17.484  20.924  0.00  0.00    -0.273 OA
BRANCH  13  16
ATOM     16  C   UNK A  10      20.061  19.144  23.124  0.00  0.00    +0.137 C 
BRANCH  16  17
ATOM     17  C   UNK A  10      19.026  19.690  22.136  0.00  0.00    +0.227 C 
ATOM     18  O   UNK A  10      17.891  19.210  22.093  0.00  0.00    -0.286 OA
ENDBRANCH  16  17
BRANCH  16  19
ATOM     19  C   UNK A  10      20.169  20.078  24.336  0.00  0.00    +0.028 C 
BRANCH  19  20
ATOM     20  C   UNK A  10      21.215  19.661  25.375  0.00  0.00    -0.000 C 
BRANCH  20  21
ATOM     21  C   UNK A  10      21.345  20.704  26.479  0.00  0.00    -0.023 C 
BRANCH  21  22
ATOM     22  C   UNK A  10      22.582  20.459  27.339  0.00  0.00    -0.081 C 
BRANCH  22  23
ATOM     23  N   UNK A  10      22.809  21.626  28.257  0.00  0.00    +0.387 N 
ATOM     24  H   UNK A  10      22.039  22.314  28.133  0.00  0.00    -0.084 HD
ATOM     25  H   UNK A  10      22.817  21.291  29.242  0.00  0.00    -0.084 HD
BRANCH  23  26
ATOM     26  C   UNK A  10      23.976  22.216  27.983  0.00  0.00    -0.051 C 
BRANCH  26  27
ATOM     27  C   UNK A  10      24.185  23.466  28.810  0.00  0.00    -0.007 C 
ATOM     28  C   UNK A  10      25.296  24.285  28.563  0.00  0.00    +0.023 C 
ATOM     29  C   UNK A  10      25.501  25.446  29.299  0.00  0.00    +0.091 C 
ATOM     30  N   UNK A  10      24.622  25.786  30.304  0.00  0.00    -0.263 NA
ATOM     31  C   UNK A  10      23.525  24.992  30.572  0.00  0.00    +0.164 C 
ATOM     32  C   UNK A  10      22.590  25.388  31.676  0.00  0.00    +0.035 C 
ATOM     33  C   UNK A  10      23.297  23.828  29.836  0.00  0.00    +0.189 C 
ATOM     34  O   UNK A  10      22.307  23.135  30.106  0.00  0.00    -0.290 OA
BRANCH  28  35
ATOM     35  C   UNK A  10      26.271  23.981  27.468  0.00  0.00    +0.181 C 
BRANCH  35  36
ATOM     36  O   UNK A  10      25.882  24.582  26.211  0.00  0.00    -0.265 OA
BRANCH  36  37
ATOM     37  P   UNK A  10      26.918  24.908  25.026  0.00  0.00    +0.533 P 
ATOM     38  O   UNK A  10      27.443  23.589  24.595  0.00  0.00    -0.115 OA
ATOM     39  O   UNK A  10      27.936  25.800  25.621  0.00  0.00    -0.115 OA
ATOM     40  O   UNK A  10      26.011  25.573  24.076  0.00  0.00    -0.222 OA
ENDBRANCH  36  37
ENDBRANCH  35  36
ENDBRANCH  28  35
ENDBRANCH  26  27
ENDBRANCH  23  26
ENDBRANCH  22  23
ENDBRANCH  21  22
ENDBRANCH  20  21
ENDBRANCH  19  20
ENDBRANCH  16  19
ENDBRANCH  13  16
ENDBRANCH  11  12
BRANCH  11  41
ATOM     41  CB  MET A   9      23.803  17.101  21.603  0.00  0.00    +0.041 C 
BRANCH  41  42
ATOM     42  CG  MET A   9      25.221  16.965  21.076  0.00  0.00    +0.060 C 
BRANCH  42  43
ATOM     43  SD  MET A   9      26.249  16.071  22.237  0.00  0.00    -0.139 S 
ATOM     44  CE  MET A   9      27.860  16.279  21.477  0.00  0.00    +0.069 C 
ENDBRANCH  42  43
ENDBRANCH  41  42
ENDBRANCH  11  41
ENDBRANCH   8  11
ENDBRANCH   6   7
BRANCH   6  45
ATOM     45  CB  ASN A   8      25.241  21.723  19.289  0.00  0.00    +0.114 C 
BRANCH  45  46
ATOM     46  CG  ASN A   8      26.413  20.929  19.895  0.00  0.00    +0.222 C 
ATOM     47  ND2 ASN A   8      26.198  20.277  21.026  0.00  0.00    -0.329 N 
ATOM     48 HD21 ASN A   8      25.262  20.314  21.478  0.00  0.00    +0.145 HD
ATOM     49 HD22 ASN A   8      26.965  19.728  21.463  0.00  0.00    +0.145 HD
ATOM     50  OD1 ASN A   8      27.511  20.913  19.323  0.00  0.00    -0.275 OA
ENDBRANCH  45  46
ENDBRANCH   6  45
ENDBRANCH   4   6
ENDBRANCH   1   2
BRANCH   1  52
ATOM     51  C   THR A   6      25.135  20.495  24.068  0.00  0.00    +0.243 C 
ATOM     52  N   GLY A   7      25.021  21.817  24.196  0.00  0.00    -0.295 N 
ATOM     53  H   GLY A   7      25.843  22.369  24.515  0.00  0.00    +0.150 HD
ATOM     54  O   THR A   6      24.175  19.754  23.844  0.00  0.00    -0.273 OA
BRANCH  51  55
ATOM     55  CA  THR A   6      26.534  19.911  24.218  0.00  0.00    +0.176 C 
BRANCH  55  57
ATOM     56  C   GLY A   5      28.579  20.612  23.078  0.00  0.00    +0.243 C 
ATOM     57  N   THR A   6      27.552  20.902  23.868  0.00  0.00    -0.295 N 
ATOM     58  H   THR A   6      27.468  21.865  24.251  0.00  0.00    +0.150 HD
ATOM     59  O   GLY A   5      28.822  19.464  22.684  0.00  0.00    -0.273 OA
BRANCH  56  60
ATOM     60  CA  GLY A   5      29.482  21.772  22.698  0.00  0.00    +0.176 C 
BRANCH  60  62
ATOM     61  C   SER A   4      31.243  20.702  21.412  0.00  0.00    +0.243 C 
ATOM     62  N   GLY A   5      30.838  21.268  22.543  0.00  0.00    -0.295 N 
ATOM     63  H   GLY A   5      31.505  21.353  23.336  0.00  0.00    +0.150 HD
ATOM     64  O   SER A   4      30.644  20.834  20.336  0.00  0.00    -0.273 OA
BRANCH  61  65
ATOM     65  CA  SER A   4      32.531  19.898  21.501  0.00  0.00    +0.178 C 
BRANCH  65  67
ATOM     66  C   ALA A   3      34.847  20.640  21.402  0.00  0.00    +0.241 C 
ATOM     67  N   SER A   4      33.637  20.738  21.952  0.00  0.00    -0.295 N 
ATOM     68  H   SER A   4      33.478  21.425  22.716  0.00  0.00    +0.150 HD
ATOM     69  O   ALA A   3      35.129  19.794  20.553  0.00  0.00    -0.273 OA
BRANCH  66  70
ATOM     70  CA  ALA A   3      35.895  21.658  21.861  0.00  0.00    +0.149 C 
ATOM     71  CB  ALA A   3      36.434  21.296  23.236  0.00  0.00    +0.031 C 
BRANCH  70  73
ATOM     72  C   GLU A   2      34.796  23.552  20.762  0.00  0.00    +0.241 C 
ATOM     73  N   ALA A   3      35.382  23.032  21.844  0.00  0.00    -0.297 N 
ATOM     74  H   ALA A   3      35.477  23.618  22.698  0.00  0.00    +0.150 HD
ATOM     75  O   GLU A   2      34.580  22.910  19.739  0.00  0.00    -0.273 OA
BRANCH  72  76
ATOM     76  CA  GLU A   2      34.401  25.019  20.831  0.00  0.00    +0.149 C 
BRANCH  76  79
ATOM     77  C   THR A   1      36.463  26.269  20.502  0.00  0.00    +0.241 C 
ATOM     78  O   THR A   1      36.751  26.177  21.696  0.00  0.00    -0.274 OA
ATOM     79  N   GLU A   2      35.331  25.778  19.998  0.00  0.00    -0.297 N 
ATOM     80  H   GLU A   2      35.106  25.938  18.995  0.00  0.00    +0.150 HD
BRANCH  77  81
ATOM     81  CA  THR A   1      37.413  26.979  19.532  0.00  0.00    +0.172 C 
BRANCH  81  82
ATOM     82  N   THR A   1      37.457  26.402  18.180  0.00  0.00    -0.236 NA
ATOM     83  H   THR A   1      36.626  26.485  17.560  0.00  0.00    +0.142 HD
ENDBRANCH  81  82
BRANCH  81  84
ATOM     84  CB  THR A   1      37.090  28.494  19.511  0.00  0.00    +0.135 C 
ATOM     85  CG2 THR A   1      38.121  29.260  18.686  0.00  0.00    +0.034 C 
BRANCH  84  86
ATOM     86  OG1 THR A   1      35.783  28.708  18.959  0.00  0.00    -0.383 OA
ATOM     87  HG1 THR A   1      35.755  28.355  18.035  0.00  0.00    +0.210 HD
ENDBRANCH  84  86
ENDBRANCH  81  84
ENDBRANCH  77  81
ENDBRANCH  76  79
BRANCH  76  88
ATOM     88  CB  GLU A   2      32.953  25.206  20.354  0.00  0.00    +0.041 C 
BRANCH  88  89
ATOM     89  CG  GLU A   2      31.900  24.674  21.331  0.00  0.00    +0.116 C 
BRANCH  89  90
ATOM     90  CD  GLU A   2      31.727  25.575  22.539  0.00  0.00    +0.365 C 
ATOM     91  OE2 GLU A   2      32.385  25.314  23.569  0.00  0.00    -0.246 OA
ATOM     92  OE1 GLU A   2      30.952  26.554  22.458  0.00  0.00    -0.246 OA
ENDBRANCH  89  90
ENDBRANCH  88  89
ENDBRANCH  76  88
ENDBRANCH  72  76
ENDBRANCH  70  73
ENDBRANCH  66  70
ENDBRANCH  65  67
BRANCH  65  93
ATOM     93  CB  SER A   4      32.357  18.699  22.443  0.00  0.00    +0.166 C 
BRANCH  93  94
ATOM     94  OG  SER A   4      31.154  17.996  22.189  0.00  0.00    -0.380 OA
ATOM     95  H   SER A   4      30.384  18.605  22.317  0.00  0.00    +0.211 HD
ENDBRANCH  93  94
ENDBRANCH  65  93
ENDBRANCH  61  65
ENDBRANCH  60  62
ENDBRANCH  56  60
ENDBRANCH  55  57
BRANCH  55  96
ATOM     96  CB  THR A   6      26.698  19.377  25.647  0.00  0.00    +0.137 C 
ATOM     97  CG2 THR A   6      27.922  18.465  25.757  0.00  0.00    +0.034 C 
BRANCH  96  98
ATOM     98  OG1 THR A   6      26.830  20.478  26.547  0.00  0.00    -0.382 OA
ATOM     99  HG1 THR A   6      26.936  20.137  27.470  0.00  0.00    +0.210 HD
ENDBRANCH  96  98
ENDBRANCH  55  96
ENDBRANCH  51  55
ENDBRANCH   1  52
TORSDOF 44
REMARK  Name = ../refined-set-2016/2qrg/2qrg_pocket.pdb
REMARK  263 active torsions:
REMARK  status: ('A' for Active; 'I' for Inactive)
REMARK    1  A    between atoms: _1  and  _3
REMARK    2  A    between atoms: _3  and  _4
REMARK    3  A    between atoms: _3  and  _6
REMARK    4  A    between atoms: _6  and  _7
REMARK    5  A    between atoms: _12  and  _13
REMARK    6  A    between atoms: _15  and  _17
REMARK    7  A    between atoms: _17  and  _18
REMARK    8  A    between atoms: _17  and  _20
REMARK    9  A    between atoms: _20  and  _21
REMARK   10  A    between atoms: _24  and  _26
REMARK   11  A    between atoms: _26  and  _27
REMARK   12  A    between atoms: _26  and  _29
REMARK   13  A    between atoms: _29  and  _30
REMARK   14  A    between atoms: _30  and  _31
REMARK   15  A    between atoms: _34  and  _36
REMARK   16  A    between atoms: _36  and  _37
REMARK   17  A    between atoms: _36  and  _39
REMARK   18  A    between atoms: _39  and  _40
REMARK   19  A    between atoms: _45  and  _47
REMARK   20  A    between atoms: _47  and  _48
REMARK   21  A    between atoms: _50  and  _52
REMARK   22  A    between atoms: _52  and  _53
REMARK   23  A    between atoms: _55  and  _57
REMARK   24  A    between atoms: _57  and  _58
REMARK   25  A    between atoms: _57  and  _60
REMARK   26  A    between atoms: _60  and  _61
REMARK   27  A    between atoms: _64  and  _66
REMARK   28  A    between atoms: _66  and  _67
REMARK   29  A    between atoms: _69  and  _71
REMARK   30  A    between atoms: _71  and  _72
REMARK   31  A    between atoms: _71  and  _74
REMARK   32  A    between atoms: _74  and  _75
REMARK   33  A    between atoms: _75  and  _76
REMARK   34  A    between atoms: _76  and  _77
REMARK   35  A    between atoms: _86  and  _88
REMARK   36  A    between atoms: _88  and  _89
REMARK   37  A    between atoms: _88  and  _91
REMARK   38  A    between atoms: _91  and  _92
REMARK   39  A    between atoms: _95  and  _97
REMARK   40  A    between atoms: _97  and  _98
REMARK   41  A    between atoms: _101  and  _103
REMARK   42  A    between atoms: _103  and  _104
REMARK   43  A    between atoms: _103  and  _106
REMARK   44  A    between atoms: _106  and  _107
REMARK   45  A    between atoms: _113  and  _115
REMARK   46  A    between atoms: _115  and  _116
REMARK   47  A    between atoms: _115  and  _118
REMARK   48  A    between atoms: _118  and  _119
REMARK   49  A    between atoms: _122  and  _124
REMARK   50  A    between atoms: _124  and  _125
REMARK   51  A    between atoms: _124  and  _127
REMARK   52  A    between atoms: _127  and  _128
REMARK   53  A    between atoms: _133  and  _134
REMARK   54  A    between atoms: _137  and  _138
REMARK   55  A    between atoms: _143  and  _145
REMARK   56  A    between atoms: _145  and  _146
REMARK   57  A    between atoms: _145  and  _148
REMARK   58  A    between atoms: _148  and  _149
REMARK   59  A    between atoms: _154  and  _156
REMARK   60  A    between atoms: _156  and  _157
REMARK   61  A    between atoms: _156  and  _159
REMARK   62  A    between atoms: _159  and  _160
REMARK   63  A    between atoms: _163  and  _165
REMARK   64  A    between atoms: _165  and  _166
REMARK   65  A    between atoms: _165  and  _168
REMARK   66  A    between atoms: _168  and  _169
REMARK   67  A    between atoms: _174  and  _176
REMARK   68  A    between atoms: _176  and  _177
REMARK   69  A    between atoms: _176  and  _179
REMARK   70  A    between atoms: _179  and  _180
REMARK   71  A    between atoms: _186  and  _188
REMARK   72  A    between atoms: _188  and  _189
REMARK   73  A    between atoms: _188  and  _191
REMARK   74  A    between atoms: _191  and  _192
REMARK   75  A    between atoms: _198  and  _200
REMARK   76  A    between atoms: _200  and  _201
REMARK   77  A    between atoms: _200  and  _203
REMARK   78  A    between atoms: _203  and  _204
REMARK   79  A    between atoms: _204  and  _205
REMARK   80  A    between atoms: _208  and  _210
REMARK   81  A    between atoms: _210  and  _211
REMARK   82  A    between atoms: _210  and  _213
REMARK   83  A    between atoms: _213  and  _214
REMARK   84  A    between atoms: _214  and  _215
REMARK   85  A    between atoms: _215  and  _216
REMARK   86  A    between atoms: _225  and  _227
REMARK   87  A    between atoms: _227  and  _228
REMARK   88  A    between atoms: _227  and  _230
REMARK   89  A    between atoms: _230  and  _231
REMARK   90  A    between atoms: _231  and  _232
REMARK   91  A    between atoms: _235  and  _237
REMARK   92  A    between atoms: _237  and  _238
REMARK   93  A    between atoms: _237  and  _240
REMARK   94  A    between atoms: _240  and  _241
REMARK   95  A    between atoms: _246  and  _248
REMARK   96  A    between atoms: _248  and  _249
REMARK   97  A    between atoms: _248  and  _251
REMARK   98  A    between atoms: _251  and  _252
REMARK   99  A    between atoms: _255  and  _257
REMARK  100  A    between atoms: _257  and  _258
REMARK  101  A    between atoms: _257  and  _260
REMARK  102  A    between atoms: _260  and  _261
REMARK  103  A    between atoms: _264  and  _266
REMARK  104  A    between atoms: _266  and  _267
REMARK  105  A    between atoms: _266  and  _269
REMARK  106  A    between atoms: _269  and  _270
REMARK  107  A    between atoms: _275  and  _277
REMARK  108  A    between atoms: _277  and  _278
REMARK  109  A    between atoms: _277  and  _280
REMARK  110  A    between atoms: _280  and  _281
REMARK  111  A    between atoms: _284  and  _286
REMARK  112  A    between atoms: _286  and  _287
REMARK  113  A    between atoms: _286  and  _289
REMARK  114  A    between atoms: _289  and  _290
REMARK  115  A    between atoms: _295  and  _297
REMARK  116  A    between atoms: _297  and  _298
REMARK  117  A    between atoms: _297  and  _300
REMARK  118  A    between atoms: _300  and  _301
REMARK  119  A    between atoms: _306  and  _308
REMARK  120  A    between atoms: _308  and  _309
REMARK  121  A    between atoms: _308  and  _311
REMARK  122  A    between atoms: _311  and  _312
REMARK  123  A    between atoms: _315  and  _317
REMARK  124  A    between atoms: _317  and  _318
REMARK  125  A    between atoms: _317  and  _320
REMARK  126  A    between atoms: _323  and  _325
REMARK  127  A    between atoms: _325  and  _326
REMARK  128  A    between atoms: _325  and  _328
REMARK  129  A    between atoms: _328  and  _329
REMARK  130  A    between atoms: _332  and  _334
REMARK  131  A    between atoms: _334  and  _335
REMARK  132  A    between atoms: _334  and  _337
REMARK  133  A    between atoms: _337  and  _338
REMARK  134  A    between atoms: _338  and  _339
REMARK  135  A    between atoms: _342  and  _344
REMARK  136  A    between atoms: _344  and  _345
REMARK  137  A    between atoms: _348  and  _350
REMARK  138  A    between atoms: _350  and  _351
REMARK  139  A    between atoms: _350  and  _353
REMARK  140  A    between atoms: _353  and  _354
REMARK  141  A    between atoms: _357  and  _359
REMARK  142  A    between atoms: _359  and  _360
REMARK  143  A    between atoms: _359  and  _362
REMARK  144  A    between atoms: _362  and  _363
REMARK  145  A    between atoms: _363  and  _364
REMARK  146  A    between atoms: _367  and  _369
REMARK  147  A    between atoms: _369  and  _370
REMARK  148  A    between atoms: _369  and  _372
REMARK  149  A    between atoms: _372  and  _373
REMARK  150  A    between atoms: _378  and  _380
REMARK  151  A    between atoms: _380  and  _381
REMARK  152  A    between atoms: _383  and  _385
REMARK  153  A    between atoms: _385  and  _386
REMARK  154  A    between atoms: _385  and  _388
REMARK  155  A    between atoms: _391  and  _393
REMARK  156  A    between atoms: _393  and  _394
REMARK  157  A    between atoms: _397  and  _399
REMARK  158  A    between atoms: _399  and  _400
REMARK  159  A    between atoms: _399  and  _402
REMARK  160  A    between atoms: _402  and  _403
REMARK  161  A    between atoms: _408  and  _410
REMARK  162  A    between atoms: _410  and  _411
REMARK  163  A    between atoms: _410  and  _413
REMARK  164  A    between atoms: _413  and  _414
REMARK  165  A    between atoms: _414  and  _415
REMARK  166  A    between atoms: _415  and  _416
REMARK  167  A    between atoms: _416  and  _417
REMARK  168  A    between atoms: _421  and  _423
REMARK  169  A    between atoms: _423  and  _424
REMARK  170  A    between atoms: _423  and  _426
REMARK  171  A    between atoms: _426  and  _427
REMARK  172  A    between atoms: _430  and  _432
REMARK  173  A    between atoms: _432  and  _433
REMARK  174  A    between atoms: _432  and  _435
REMARK  175  A    between atoms: _435  and  _436
REMARK  176  A    between atoms: _441  and  _443
REMARK  177  A    between atoms: _443  and  _444
REMARK  178  A    between atoms: _446  and  _448
REMARK  179  A    between atoms: _448  and  _449
REMARK  180  A    between atoms: _448  and  _451
REMARK  181  A    between atoms: _451  and  _452
REMARK  182  A    between atoms: _452  and  _453
REMARK  183  A    between atoms: _453  and  _454
REMARK  184  A    between atoms: _454  and  _455
REMARK  185  A    between atoms: _459  and  _461
REMARK  186  A    between atoms: _461  and  _462
REMARK  187  A    between atoms: _461  and  _464
REMARK  188  A    between atoms: _464  and  _465
REMARK  189  A    between atoms: _465  and  _466
REMARK  190  A    between atoms: _466  and  _467
REMARK  191  A    between atoms: _476  and  _478
REMARK  192  A    between atoms: _478  and  _479
REMARK  193  A    between atoms: _478  and  _481
REMARK  194  A    between atoms: _481  and  _482
REMARK  195  A    between atoms: _487  and  _488
REMARK  196  A    between atoms: _490  and  _492
REMARK  197  A    between atoms: _492  and  _493
REMARK  198  A    between atoms: _492  and  _495
REMARK  199  A    between atoms: _495  and  _496
REMARK  200  A    between atoms: _496  and  _497
REMARK  201  A    between atoms: _497  and  _498
REMARK  202  A    between atoms: _498  and  _499
REMARK  203  A    between atoms: _503  and  _505
REMARK  204  A    between atoms: _505  and  _506
REMARK  205  A    between atoms: _505  and  _508
REMARK  206  A    between atoms: _508  and  _509
REMARK  207  A    between atoms: _511  and  _513
REMARK  208  A    between atoms: _513  and  _514
REMARK  209  A    between atoms: _513  and  _516
REMARK  210  A    between atoms: _516  and  _517
REMARK  211  A    between atoms: _520  and  _522
REMARK  212  A    between atoms: _522  and  _523
REMARK  213  A    between atoms: _522  and  _525
REMARK  214  A    between atoms: _525  and  _526
REMARK  215  A    between atoms: _526  and  _527
REMARK  216  A    between atoms: _530  and  _532
REMARK  217  A    between atoms: _532  and  _533
REMARK  218  A    between atoms: _536  and  _538
REMARK  219  A    between atoms: _538  and  _539
REMARK  220  A    between atoms: _538  and  _541
REMARK  221  A    between atoms: _541  and  _542
REMARK  222  A    between atoms: _544  and  _546
REMARK  223  A    between atoms: _546  and  _547
REMARK  224  A    between atoms: _549  and  _551
REMARK  225  A    between atoms: _551  and  _552
REMARK  226  A    between atoms: _551  and  _554
REMARK  227  A    between atoms: _554  and  _555
REMARK  228  A    between atoms: _558  and  _560
REMARK  229  A    between atoms: _560  and  _561
REMARK  230  A    between atoms: _563  and  _565
REMARK  231  A    between atoms: _565  and  _566
REMARK  232  A    between atoms: _565  and  _568
REMARK  233  A    between atoms: _568  and  _569
REMARK  234  A    between atoms: _574  and  _576
REMARK  235  A    between atoms: _576  and  _577
REMARK  236  A    between atoms: _576  and  _579
REMARK  237  A    between atoms: _579  and  _580
REMARK  238  A    between atoms: _580  and  _581
REMARK  239  A    between atoms: _588  and  _589
REMARK  240  A    between atoms: _589  and  _605
REMARK  241  A    between atoms: _590  and  _592
REMARK  242  A    between atoms: _592  and  _593
REMARK  243  A    between atoms: _593  and  _594
REMARK  244  A    between atoms: _598  and  _600
REMARK  245  A    between atoms: _600  and  _601
REMARK  246  A    between atoms: _600  and  _608
REMARK  247  A    between atoms: _601  and  _602
REMARK  248  A    between atoms: _602  and  _603
REMARK  249  A    between atoms: _603  and  _604
REMARK  250  A    between atoms: _604  and  _605
REMARK  251  A    between atoms: _610  and  _612
REMARK  252  A    between atoms: _612  and  _613
REMARK  253  A    between atoms: _612  and  _615
REMARK  254  A    between atoms: _615  and  _616
REMARK  255  A    between atoms: _619  and  _621
REMARK  256  A    between atoms: _621  and  _622
REMARK  257  A    between atoms: _624  and  _626
REMARK  258  A    between atoms: _626  and  _627
REMARK  259  A    between atoms: _630  and  _632
REMARK  260  A    between atoms: _632  and  _633
REMARK  261  A    between atoms: _632  and  _635
REMARK  262  A    between atoms: _635  and  _636
REMARK  263  A    between atoms: _641  and  _642
REMARK                            x       y       z     vdW  Elec       q    Type
REMARK                         _______ _______ _______ _____ _____    ______ ____
ROOT
ATOM      1  C   ASP A   1      32.798  22.250  15.973  0.00  0.00    +0.239 C 
ATOM      2  N   GLY A   2      33.697  21.715  16.795  0.00  0.00    -0.296 N 
ATOM      3  H   GLY A   2      34.695  21.994  16.703  0.00  0.00    +0.150 HD
ATOM      4  O   ASP A   1      31.603  21.941  15.984  0.00  0.00    -0.274 OA
ENDROOT
BRANCH   1   5
ATOM      5  CA  ASP A   1      33.317  23.275  14.971  0.00  0.00    +0.156 C 
BRANCH   5   6
ATOM      6  N   ASP A   1      32.532  23.208  13.744  0.00  0.00    -0.238 NA
ATOM      7  H   ASP A   1      31.495  23.175  13.816  0.00  0.00    +0.142 HD
ENDBRANCH   5   6
BRANCH   5   8
ATOM      8  CB  ASP A   1      33.245  24.684  15.572  0.00  0.00    +0.140 C 
BRANCH   8   9
ATOM      9  CG  ASP A   1      34.343  24.947  16.589  0.00  0.00    +0.367 C 
ATOM     10  OD2 ASP A   1      34.189  25.887  17.398  0.00  0.00    -0.246 OA
ATOM     11  OD1 ASP A   1      35.353  24.209  16.587  0.00  0.00    -0.246 OA
ENDBRANCH   8   9
ENDBRANCH   5   8
ENDBRANCH   1   5
BRANCH   2  12
ATOM     12  CA  GLY A   2      33.323  20.746  17.825  0.00  0.00    +0.176 C 
BRANCH  12  13
ATOM     13  C   GLY A   2      32.465  19.615  17.288  0.00  0.00    +0.243 C 
ATOM     14  N   ALA A   3      31.420  19.267  18.035  0.00  0.00    -0.298 N 
ATOM     15  H   ALA A   3      31.227  19.786  18.916  0.00  0.00    +0.150 HD
ATOM     16  O   GLY A   2      32.733  19.080  16.209  0.00  0.00    -0.273 OA
BRANCH  14  17
ATOM     17  CA  ALA A   3      30.538  18.170  17.642  0.00  0.00    +0.137 C 
ATOM     18  CB  ALA A   3      29.760  17.645  18.844  0.00  0.00    +0.030 C 
BRANCH  17  19
ATOM     19  C   ALA A   3      29.588  18.526  16.489  0.00  0.00    +0.227 C 
ATOM     20  O   ALA A   3      28.941  17.626  15.935  0.00  0.00    -0.286 OA
ENDBRANCH  17  19
ENDBRANCH  14  17
ENDBRANCH  12  13
ENDBRANCH   2  12
TORSDOF 8
REMARK  Name = ../refined-set-2016/2qrg/2qrg_pocket.pdb
REMARK  263 active torsions:
REMARK  status: ('A' for Active; 'I' for Inactive)
REMARK    1  A    between atoms: _1  and  _3
REMARK    2  A    between atoms: _3  and  _4
REMARK    3  A    between atoms: _3  and  _6
REMARK    4  A    between atoms: _6  and  _7
REMARK    5  A    between atoms: _12  and  _13
REMARK    6  A    between atoms: _15  and  _17
REMARK    7  A    between atoms: _17  and  _18
REMARK    8  A    between atoms: _17  and  _20
REMARK    9  A    between atoms: _20  and  _21
REMARK   10  A    between atoms: _24  and  _26
REMARK   11  A    between atoms: _26  and  _27
REMARK   12  A    between atoms: _26  and  _29
REMARK   13  A    between atoms: _29  and  _30
REMARK   14  A    between atoms: _30  and  _31
REMARK   15  A    between atoms: _34  and  _36
REMARK   16  A    between atoms: _36  and  _37
REMARK   17  A    between atoms: _36  and  _39
REMARK   18  A    between atoms: _39  and  _40
REMARK   19  A    between atoms: _45  and  _47
REMARK   20  A    between atoms: _47  and  _48
REMARK   21  A    between atoms: _50  and  _52
REMARK   22  A    between atoms: _52  and  _53
REMARK   23  A    between atoms: _55  and  _57
REMARK   24  A    between atoms: _57  and  _58
REMARK   25  A    between atoms: _57  and  _60
REMARK   26  A    between atoms: _60  and  _61
REMARK   27  A    between atoms: _64  and  _66
REMARK   28  A    between atoms: _66  and  _67
REMARK   29  A    between atoms: _69  and  _71
REMARK   30  A    between atoms: _71  and  _72
REMARK   31  A    between atoms: _71  and  _74
REMARK   32  A    between atoms: _74  and  _75
REMARK   33  A    between atoms: _75  and  _76
REMARK   34  A    between atoms: _76  and  _77
REMARK   35  A    between atoms: _86  and  _88
REMARK   36  A    between atoms: _88  and  _89
REMARK   37  A    between atoms: _88  and  _91
REMARK   38  A    between atoms: _91  and  _92
REMARK   39  A    between atoms: _95  and  _97
REMARK   40  A    between atoms: _97  and  _98
REMARK   41  A    between atoms: _101  and  _103
REMARK   42  A    between atoms: _103  and  _104
REMARK   43  A    between atoms: _103  and  _106
REMARK   44  A    between atoms: _106  and  _107
REMARK   45  A    between atoms: _113  and  _115
REMARK   46  A    between atoms: _115  and  _116
REMARK   47  A    between atoms: _115  and  _118
REMARK   48  A    between atoms: _118  and  _119
REMARK   49  A    between atoms: _122  and  _124
REMARK   50  A    between atoms: _124  and  _125
REMARK   51  A    between atoms: _124  and  _127
REMARK   52  A    between atoms: _127  and  _128
REMARK   53  A    between atoms: _133  and  _134
REMARK   54  A    between atoms: _137  and  _138
REMARK   55  A    between atoms: _143  and  _145
REMARK   56  A    between atoms: _145  and  _146
REMARK   57  A    between atoms: _145  and  _148
REMARK   58  A    between atoms: _148  and  _149
REMARK   59  A    between atoms: _154  and  _156
REMARK   60  A    between atoms: _156  and  _157
REMARK   61  A    between atoms: _156  and  _159
REMARK   62  A    between atoms: _159  and  _160
REMARK   63  A    between atoms: _163  and  _165
REMARK   64  A    between atoms: _165  and  _166
REMARK   65  A    between atoms: _165  and  _168
REMARK   66  A    between atoms: _168  and  _169
REMARK   67  A    between atoms: _174  and  _176
REMARK   68  A    between atoms: _176  and  _177
REMARK   69  A    between atoms: _176  and  _179
REMARK   70  A    between atoms: _179  and  _180
REMARK   71  A    between atoms: _186  and  _188
REMARK   72  A    between atoms: _188  and  _189
REMARK   73  A    between atoms: _188  and  _191
REMARK   74  A    between atoms: _191  and  _192
REMARK   75  A    between atoms: _198  and  _200
REMARK   76  A    between atoms: _200  and  _201
REMARK   77  A    between atoms: _200  and  _203
REMARK   78  A    between atoms: _203  and  _204
REMARK   79  A    between atoms: _204  and  _205
REMARK   80  A    between atoms: _208  and  _210
REMARK   81  A    between atoms: _210  and  _211
REMARK   82  A    between atoms: _210  and  _213
REMARK   83  A    between atoms: _213  and  _214
REMARK   84  A    between atoms: _214  and  _215
REMARK   85  A    between atoms: _215  and  _216
REMARK   86  A    between atoms: _225  and  _227
REMARK   87  A    between atoms: _227  and  _228
REMARK   88  A    between atoms: _227  and  _230
REMARK   89  A    between atoms: _230  and  _231
REMARK   90  A    between atoms: _231  and  _232
REMARK   91  A    between atoms: _235  and  _237
REMARK   92  A    between atoms: _237  and  _238
REMARK   93  A    between atoms: _237  and  _240
REMARK   94  A    between atoms: _240  and  _241
REMARK   95  A    between atoms: _246  and  _248
REMARK   96  A    between atoms: _248  and  _249
REMARK   97  A    between atoms: _248  and  _251
REMARK   98  A    between atoms: _251  and  _252
REMARK   99  A    between atoms: _255  and  _257
REMARK  100  A    between atoms: _257  and  _258
REMARK  101  A    between atoms: _257  and  _260
REMARK  102  A    between atoms: _260  and  _261
REMARK  103  A    between atoms: _264  and  _266
REMARK  104  A    between atoms: _266  and  _267
REMARK  105  A    between atoms: _266  and  _269
REMARK  106  A    between atoms: _269  and  _270
REMARK  107  A    between atoms: _275  and  _277
REMARK  108  A    between atoms: _277  and  _278
REMARK  109  A    between atoms: _277  and  _280
REMARK  110  A    between atoms: _280  and  _281
REMARK  111  A    between atoms: _284  and  _286
REMARK  112  A    between atoms: _286  and  _287
REMARK  113  A    between atoms: _286  and  _289
REMARK  114  A    between atoms: _289  and  _290
REMARK  115  A    between atoms: _295  and  _297
REMARK  116  A    between atoms: _297  and  _298
REMARK  117  A    between atoms: _297  and  _300
REMARK  118  A    between atoms: _300  and  _301
REMARK  119  A    between atoms: _306  and  _308
REMARK  120  A    between atoms: _308  and  _309
REMARK  121  A    between atoms: _308  and  _311
REMARK  122  A    between atoms: _311  and  _312
REMARK  123  A    between atoms: _315  and  _317
REMARK  124  A    between atoms: _317  and  _318
REMARK  125  A    between atoms: _317  and  _320
REMARK  126  A    between atoms: _323  and  _325
REMARK  127  A    between atoms: _325  and  _326
REMARK  128  A    between atoms: _325  and  _328
REMARK  129  A    between atoms: _328  and  _329
REMARK  130  A    between atoms: _332  and  _334
REMARK  131  A    between atoms: _334  and  _335
REMARK  132  A    between atoms: _334  and  _337
REMARK  133  A    between atoms: _337  and  _338
REMARK  134  A    between atoms: _338  and  _339
REMARK  135  A    between atoms: _342  and  _344
REMARK  136  A    between atoms: _344  and  _345
REMARK  137  A    between atoms: _348  and  _350
REMARK  138  A    between atoms: _350  and  _351
REMARK  139  A    between atoms: _350  and  _353
REMARK  140  A    between atoms: _353  and  _354
REMARK  141  A    between atoms: _357  and  _359
REMARK  142  A    between atoms: _359  and  _360
REMARK  143  A    between atoms: _359  and  _362
REMARK  144  A    between atoms: _362  and  _363
REMARK  145  A    between atoms: _363  and  _364
REMARK  146  A    between atoms: _367  and  _369
REMARK  147  A    between atoms: _369  and  _370
REMARK  148  A    between atoms: _369  and  _372
REMARK  149  A    between atoms: _372  and  _373
REMARK  150  A    between atoms: _378  and  _380
REMARK  151  A    between atoms: _380  and  _381
REMARK  152  A    between atoms: _383  and  _385
REMARK  153  A    between atoms: _385  and  _386
REMARK  154  A    between atoms: _385  and  _388
REMARK  155  A    between atoms: _391  and  _393
REMARK  156  A    between atoms: _393  and  _394
REMARK  157  A    between atoms: _397  and  _399
REMARK  158  A    between atoms: _399  and  _400
REMARK  159  A    between atoms: _399  and  _402
REMARK  160  A    between atoms: _402  and  _403
REMARK  161  A    between atoms: _408  and  _410
REMARK  162  A    between atoms: _410  and  _411
REMARK  163  A    between atoms: _410  and  _413
REMARK  164  A    between atoms: _413  and  _414
REMARK  165  A    between atoms: _414  and  _415
REMARK  166  A    between atoms: _415  and  _416
REMARK  167  A    between atoms: _416  and  _417
REMARK  168  A    between atoms: _421  and  _423
REMARK  169  A    between atoms: _423  and  _424
REMARK  170  A    between atoms: _423  and  _426
REMARK  171  A    between atoms: _426  and  _427
REMARK  172  A    between atoms: _430  and  _432
REMARK  173  A    between atoms: _432  and  _433
REMARK  174  A    between atoms: _432  and  _435
REMARK  175  A    between atoms: _435  and  _436
REMARK  176  A    between atoms: _441  and  _443
REMARK  177  A    between atoms: _443  and  _444
REMARK  178  A    between atoms: _446  and  _448
REMARK  179  A    between atoms: _448  and  _449
REMARK  180  A    between atoms: _448  and  _451
REMARK  181  A    between atoms: _451  and  _452
REMARK  182  A    between atoms: _452  and  _453
REMARK  183  A    between atoms: _453  and  _454
REMARK  184  A    between atoms: _454  and  _455
REMARK  185  A    between atoms: _459  and  _461
REMARK  186  A    between atoms: _461  and  _462
REMARK  187  A    between atoms: _461  and  _464
REMARK  188  A    between atoms: _464  and  _465
REMARK  189  A    between atoms: _465  and  _466
REMARK  190  A    between atoms: _466  and  _467
REMARK  191  A    between atoms: _476  and  _478
REMARK  192  A    between atoms: _478  and  _479
REMARK  193  A    between atoms: _478  and  _481
REMARK  194  A    between atoms: _481  and  _482
REMARK  195  A    between atoms: _487  and  _488
REMARK  196  A    between atoms: _490  and  _492
REMARK  197  A    between atoms: _492  and  _493
REMARK  198  A    between atoms: _492  and  _495
REMARK  199  A    between atoms: _495  and  _496
REMARK  200  A    between atoms: _496  and  _497
REMARK  201  A    between atoms: _497  and  _498
REMARK  202  A    between atoms: _498  and  _499
REMARK  203  A    between atoms: _503  and  _505
REMARK  204  A    between atoms: _505  and  _506
REMARK  205  A    between atoms: _505  and  _508
REMARK  206  A    between atoms: _508  and  _509
REMARK  207  A    between atoms: _511  and  _513
REMARK  208  A    between atoms: _513  and  _514
REMARK  209  A    between atoms: _513  and  _516
REMARK  210  A    between atoms: _516  and  _517
REMARK  211  A    between atoms: _520  and  _522
REMARK  212  A    between atoms: _522  and  _523
REMARK  213  A    between atoms: _522  and  _525
REMARK  214  A    between atoms: _525  and  _526
REMARK  215  A    between atoms: _526  and  _527
REMARK  216  A    between atoms: _530  and  _532
REMARK  217  A    between atoms: _532  and  _533
REMARK  218  A    between atoms: _536  and  _538
REMARK  219  A    between atoms: _538  and  _539
REMARK  220  A    between atoms: _538  and  _541
REMARK  221  A    between atoms: _541  and  _542
REMARK  222  A    between atoms: _544  and  _546
REMARK  223  A    between atoms: _546  and  _547
REMARK  224  A    between atoms: _549  and  _551
REMARK  225  A    between atoms: _551  and  _552
REMARK  226  A    between atoms: _551  and  _554
REMARK  227  A    between atoms: _554  and  _555
REMARK  228  A    between atoms: _558  and  _560
REMARK  229  A    between atoms: _560  and  _561
REMARK  230  A    between atoms: _563  and  _565
REMARK  231  A    between atoms: _565  and  _566
REMARK  232  A    between atoms: _565  and  _568
REMARK  233  A    between atoms: _568  and  _569
REMARK  234  A    between atoms: _574  and  _576
REMARK  235  A    between atoms: _576  and  _577
REMARK  236  A    between atoms: _576  and  _579
REMARK  237  A    between atoms: _579  and  _580
REMARK  238  A    between atoms: _580  and  _581
REMARK  239  A    between atoms: _588  and  _589
REMARK  240  A    between atoms: _589  and  _605
REMARK  241  A    between atoms: _590  and  _592
REMARK  242  A    between atoms: _592  and  _593
REMARK  243  A    between atoms: _593  and  _594
REMARK  244  A    between atoms: _598  and  _600
REMARK  245  A    between atoms: _600  and  _601
REMARK  246  A    between atoms: _600  and  _608
REMARK  247  A    between atoms: _601  and  _602
REMARK  248  A    between atoms: _602  and  _603
REMARK  249  A    between atoms: _603  and  _604
REMARK  250  A    between atoms: _604  and  _605
REMARK  251  A    between atoms: _610  and  _612
REMARK  252  A    between atoms: _612  and  _613
REMARK  253  A    between atoms: _612  and  _615
REMARK  254  A    between atoms: _615  and  _616
REMARK  255  A    between atoms: _619  and  _621
REMARK  256  A    between atoms: _621  and  _622
REMARK  257  A    between atoms: _624  and  _626
REMARK  258  A    between atoms: _626  and  _627
REMARK  259  A    between atoms: _630  and  _632
REMARK  260  A    between atoms: _632  and  _633
REMARK  261  A    between atoms: _632  and  _635
REMARK  262  A    between atoms: _635  and  _636
REMARK  263  A    between atoms: _641  and  _642
REMARK                            x       y       z     vdW  Elec       q    Type
REMARK                         _______ _______ _______ _____ _____    ______ ____
ROOT
ATOM      1  CG  TYR A   1      34.539   7.583  28.817  0.00  0.00    -0.020 A 
ATOM      2  CD2 TYR A   1      35.703   8.175  29.314  0.00  0.00    -0.001 A 
ATOM      3  CE2 TYR A   1      35.977   9.526  29.092  0.00  0.00    +0.036 A 
ATOM      4  CZ  TYR A   1      35.085  10.297  28.371  0.00  0.00    +0.134 A 
ATOM      5  CE1 TYR A   1      33.914   9.739  27.876  0.00  0.00    +0.036 A 
ATOM      6  CD1 TYR A   1      33.646   8.385  28.103  0.00  0.00    -0.001 A 
ENDROOT
BRANCH   4   7
ATOM      7  OH  TYR A   1      35.355  11.634  28.153  0.00  0.00    -0.506 OA
ATOM      8  HH  TYR A   1      35.399  11.806  27.179  0.00  0.00    +0.292 HD
ENDBRANCH   4   7
BRANCH   1   9
ATOM      9  CB  TYR A   1      34.233   6.124  29.085  0.00  0.00    +0.051 C 
BRANCH   9  10
ATOM     10  CA  TYR A   1      34.780   5.115  28.072  0.00  0.00    +0.137 C 
BRANCH  10  11
ATOM     11  N   TYR A   1      33.873   4.970  26.931  0.00  0.00    -0.239 NA
ATOM     12  H   TYR A   1      33.030   5.576  26.873  0.00  0.00    +0.142 HD
ENDBRANCH  10  11
BRANCH  10  13
ATOM     13  C   TYR A   1      34.953   3.778  28.788  0.00  0.00    +0.224 C 
ATOM     14  O   TYR A   1      36.068   3.388  29.119  0.00  0.00    -0.287 OA
ENDBRANCH  10  13
ENDBRANCH   9  10
ENDBRANCH   1   9
TORSDOF 5
REMARK  Name = ../refined-set-2016/2qrg/2qrg_pocket.pdb
REMARK  263 active torsions:
REMARK  status: ('A' for Active; 'I' for Inactive)
REMARK    1  A    between atoms: _1  and  _3
REMARK    2  A    between atoms: _3  and  _4
REMARK    3  A    between atoms: _3  and  _6
REMARK    4  A    between atoms: _6  and  _7
REMARK    5  A    between atoms: _12  and  _13
REMARK    6  A    between atoms: _15  and  _17
REMARK    7  A    between atoms: _17  and  _18
REMARK    8  A    between atoms: _17  and  _20
REMARK    9  A    between atoms: _20  and  _21
REMARK   10  A    between atoms: _24  and  _26
REMARK   11  A    between atoms: _26  and  _27
REMARK   12  A    between atoms: _26  and  _29
REMARK   13  A    between atoms: _29  and  _30
REMARK   14  A    between atoms: _30  and  _31
REMARK   15  A    between atoms: _34  and  _36
REMARK   16  A    between atoms: _36  and  _37
REMARK   17  A    between atoms: _36  and  _39
REMARK   18  A    between atoms: _39  and  _40
REMARK   19  A    between atoms: _45  and  _47
REMARK   20  A    between atoms: _47  and  _48
REMARK   21  A    between atoms: _50  and  _52
REMARK   22  A    between atoms: _52  and  _53
REMARK   23  A    between atoms: _55  and  _57
REMARK   24  A    between atoms: _57  and  _58
REMARK   25  A    between atoms: _57  and  _60
REMARK   26  A    between atoms: _60  and  _61
REMARK   27  A    between atoms: _64  and  _66
REMARK   28  A    between atoms: _66  and  _67
REMARK   29  A    between atoms: _69  and  _71
REMARK   30  A    between atoms: _71  and  _72
REMARK   31  A    between atoms: _71  and  _74
REMARK   32  A    between atoms: _74  and  _75
REMARK   33  A    between atoms: _75  and  _76
REMARK   34  A    between atoms: _76  and  _77
REMARK   35  A    between atoms: _86  and  _88
REMARK   36  A    between atoms: _88  and  _89
REMARK   37  A    between atoms: _88  and  _91
REMARK   38  A    between atoms: _91  and  _92
REMARK   39  A    between atoms: _95  and  _97
REMARK   40  A    between atoms: _97  and  _98
REMARK   41  A    between atoms: _101  and  _103
REMARK   42  A    between atoms: _103  and  _104
REMARK   43  A    between atoms: _103  and  _106
REMARK   44  A    between atoms: _106  and  _107
REMARK   45  A    between atoms: _113  and  _115
REMARK   46  A    between atoms: _115  and  _116
REMARK   47  A    between atoms: _115  and  _118
REMARK   48  A    between atoms: _118  and  _119
REMARK   49  A    between atoms: _122  and  _124
REMARK   50  A    between atoms: _124  and  _125
REMARK   51  A    between atoms: _124  and  _127
REMARK   52  A    between atoms: _127  and  _128
REMARK   53  A    between atoms: _133  and  _134
REMARK   54  A    between atoms: _137  and  _138
REMARK   55  A    between atoms: _143  and  _145
REMARK   56  A    between atoms: _145  and  _146
REMARK   57  A    between atoms: _145  and  _148
REMARK   58  A    between atoms: _148  and  _149
REMARK   59  A    between atoms: _154  and  _156
REMARK   60  A    between atoms: _156  and  _157
REMARK   61  A    between atoms: _156  and  _159
REMARK   62  A    between atoms: _159  and  _160
REMARK   63  A    between atoms: _163  and  _165
REMARK   64  A    between atoms: _165  and  _166
REMARK   65  A    between atoms: _165  and  _168
REMARK   66  A    between atoms: _168  and  _169
REMARK   67  A    between atoms: _174  and  _176
REMARK   68  A    between atoms: _176  and  _177
REMARK   69  A    between atoms: _176  and  _179
REMARK   70  A    between atoms: _179  and  _180
REMARK   71  A    between atoms: _186  and  _188
REMARK   72  A    between atoms: _188  and  _189
REMARK   73  A    between atoms: _188  and  _191
REMARK   74  A    between atoms: _191  and  _192
REMARK   75  A    between atoms: _198  and  _200
REMARK   76  A    between atoms: _200  and  _201
REMARK   77  A    between atoms: _200  and  _203
REMARK   78  A    between atoms: _203  and  _204
REMARK   79  A    between atoms: _204  and  _205
REMARK   80  A    between atoms: _208  and  _210
REMARK   81  A    between atoms: _210  and  _211
REMARK   82  A    between atoms: _210  and  _213
REMARK   83  A    between atoms: _213  and  _214
REMARK   84  A    between atoms: _214  and  _215
REMARK   85  A    between atoms: _215  and  _216
REMARK   86  A    between atoms: _225  and  _227
REMARK   87  A    between atoms: _227  and  _228
REMARK   88  A    between atoms: _227  and  _230
REMARK   89  A    between atoms: _230  and  _231
REMARK   90  A    between atoms: _231  and  _232
REMARK   91  A    between atoms: _235  and  _237
REMARK   92  A    between atoms: _237  and  _238
REMARK   93  A    between atoms: _237  and  _240
REMARK   94  A    between atoms: _240  and  _241
REMARK   95  A    between atoms: _246  and  _248
REMARK   96  A    between atoms: _248  and  _249
REMARK   97  A    between atoms: _248  and  _251
REMARK   98  A    between atoms: _251  and  _252
REMARK   99  A    between atoms: _255  and  _257
REMARK  100  A    between atoms: _257  and  _258
REMARK  101  A    between atoms: _257  and  _260
REMARK  102  A    between atoms: _260  and  _261
REMARK  103  A    between atoms: _264  and  _266
REMARK  104  A    between atoms: _266  and  _267
REMARK  105  A    between atoms: _266  and  _269
REMARK  106  A    between atoms: _269  and  _270
REMARK  107  A    between atoms: _275  and  _277
REMARK  108  A    between atoms: _277  and  _278
REMARK  109  A    between atoms: _277  and  _280
REMARK  110  A    between atoms: _280  and  _281
REMARK  111  A    between atoms: _284  and  _286
REMARK  112  A    between atoms: _286  and  _287
REMARK  113  A    between atoms: _286  and  _289
REMARK  114  A    between atoms: _289  and  _290
REMARK  115  A    between atoms: _295  and  _297
REMARK  116  A    between atoms: _297  and  _298
REMARK  117  A    between atoms: _297  and  _300
REMARK  118  A    between atoms: _300  and  _301
REMARK  119  A    between atoms: _306  and  _308
REMARK  120  A    between atoms: _308  and  _309
REMARK  121  A    between atoms: _308  and  _311
REMARK  122  A    between atoms: _311  and  _312
REMARK  123  A    between atoms: _315  and  _317
REMARK  124  A    between atoms: _317  and  _318
REMARK  125  A    between atoms: _317  and  _320
REMARK  126  A    between atoms: _323  and  _325
REMARK  127  A    between atoms: _325  and  _326
REMARK  128  A    between atoms: _325  and  _328
REMARK  129  A    between atoms: _328  and  _329
REMARK  130  A    between atoms: _332  and  _334
REMARK  131  A    between atoms: _334  and  _335
REMARK  132  A    between atoms: _334  and  _337
REMARK  133  A    between atoms: _337  and  _338
REMARK  134  A    between atoms: _338  and  _339
REMARK  135  A    between atoms: _342  and  _344
REMARK  136  A    between atoms: _344  and  _345
REMARK  137  A    between atoms: _348  and  _350
REMARK  138  A    between atoms: _350  and  _351
REMARK  139  A    between atoms: _350  and  _353
REMARK  140  A    between atoms: _353  and  _354
REMARK  141  A    between atoms: _357  and  _359
REMARK  142  A    between atoms: _359  and  _360
REMARK  143  A    between atoms: _359  and  _362
REMARK  144  A    between atoms: _362  and  _363
REMARK  145  A    between atoms: _363  and  _364
REMARK  146  A    between atoms: _367  and  _369
REMARK  147  A    between atoms: _369  and  _370
REMARK  148  A    between atoms: _369  and  _372
REMARK  149  A    between atoms: _372  and  _373
REMARK  150  A    between atoms: _378  and  _380
REMARK  151  A    between atoms: _380  and  _381
REMARK  152  A    between atoms: _383  and  _385
REMARK  153  A    between atoms: _385  and  _386
REMARK  154  A    between atoms: _385  and  _388
REMARK  155  A    between atoms: _391  and  _393
REMARK  156  A    between atoms: _393  and  _394
REMARK  157  A    between atoms: _397  and  _399
REMARK  158  A    between atoms: _399  and  _400
REMARK  159  A    between atoms: _399  and  _402
REMARK  160  A    between atoms: _402  and  _403
REMARK  161  A    between atoms: _408  and  _410
REMARK  162  A    between atoms: _410  and  _411
REMARK  163  A    between atoms: _410  and  _413
REMARK  164  A    between atoms: _413  and  _414
REMARK  165  A    between atoms: _414  and  _415
REMARK  166  A    between atoms: _415  and  _416
REMARK  167  A    between atoms: _416  and  _417
REMARK  168  A    between atoms: _421  and  _423
REMARK  169  A    between atoms: _423  and  _424
REMARK  170  A    between atoms: _423  and  _426
REMARK  171  A    between atoms: _426  and  _427
REMARK  172  A    between atoms: _430  and  _432
REMARK  173  A    between atoms: _432  and  _433
REMARK  174  A    between atoms: _432  and  _435
REMARK  175  A    between atoms: _435  and  _436
REMARK  176  A    between atoms: _441  and  _443
REMARK  177  A    between atoms: _443  and  _444
REMARK  178  A    between atoms: _446  and  _448
REMARK  179  A    between atoms: _448  and  _449
REMARK  180  A    between atoms: _448  and  _451
REMARK  181  A    between atoms: _451  and  _452
REMARK  182  A    between atoms: _452  and  _453
REMARK  183  A    between atoms: _453  and  _454
REMARK  184  A    between atoms: _454  and  _455
REMARK  185  A    between atoms: _459  and  _461
REMARK  186  A    between atoms: _461  and  _462
REMARK  187  A    between atoms: _461  and  _464
REMARK  188  A    between atoms: _464  and  _465
REMARK  189  A    between atoms: _465  and  _466
REMARK  190  A    between atoms: _466  and  _467
REMARK  191  A    between atoms: _476  and  _478
REMARK  192  A    between atoms: _478  and  _479
REMARK  193  A    between atoms: _478  and  _481
REMARK  194  A    between atoms: _481  and  _482
REMARK  195  A    between atoms: _487  and  _488
REMARK  196  A    between atoms: _490  and  _492
REMARK  197  A    between atoms: _492  and  _493
REMARK  198  A    between atoms: _492  and  _495
REMARK  199  A    between atoms: _495  and  _496
REMARK  200  A    between atoms: _496  and  _497
REMARK  201  A    between atoms: _497  and  _498
REMARK  202  A    between atoms: _498  and  _499
REMARK  203  A    between atoms: _503  and  _505
REMARK  204  A    between atoms: _505  and  _506
REMARK  205  A    between atoms: _505  and  _508
REMARK  206  A    between atoms: _508  and  _509
REMARK  207  A    between atoms: _511  and  _513
REMARK  208  A    between atoms: _513  and  _514
REMARK  209  A    between atoms: _513  and  _516
REMARK  210  A    between atoms: _516  and  _517
REMARK  211  A    between atoms: _520  and  _522
REMARK  212  A    between atoms: _522  and  _523
REMARK  213  A    between atoms: _522  and  _525
REMARK  214  A    between atoms: _525  and  _526
REMARK  215  A    between atoms: _526  and  _527
REMARK  216  A    between atoms: _530  and  _532
REMARK  217  A    between atoms: _532  and  _533
REMARK  218  A    between atoms: _536  and  _538
REMARK  219  A    between atoms: _538  and  _539
REMARK  220  A    between atoms: _538  and  _541
REMARK  221  A    between atoms: _541  and  _542
REMARK  222  A    between atoms: _544  and  _546
REMARK  223  A    between atoms: _546  and  _547
REMARK  224  A    between atoms: _549  and  _551
REMARK  225  A    between atoms: _551  and  _552
REMARK  226  A    between atoms: _551  and  _554
REMARK  227  A    between atoms: _554  and  _555
REMARK  228  A    between atoms: _558  and  _560
REMARK  229  A    between atoms: _560  and  _561
REMARK  230  A    between atoms: _563  and  _565
REMARK  231  A    between atoms: _565  and  _566
REMARK  232  A    between atoms: _565  and  _568
REMARK  233  A    between atoms: _568  and  _569
REMARK  234  A    between atoms: _574  and  _576
REMARK  235  A    between atoms: _576  and  _577
REMARK  236  A    between atoms: _576  and  _579
REMARK  237  A    between atoms: _579  and  _580
REMARK  238  A    between atoms: _580  and  _581
REMARK  239  A    between atoms: _588  and  _589
REMARK  240  A    between atoms: _589  and  _605
REMARK  241  A    between atoms: _590  and  _592
REMARK  242  A    between atoms: _592  and  _593
REMARK  243  A    between atoms: _593  and  _594
REMARK  244  A    between atoms: _598  and  _600
REMARK  245  A    between atoms: _600  and  _601
REMARK  246  A    between atoms: _600  and  _608
REMARK  247  A    between atoms: _601  and  _602
REMARK  248  A    between atoms: _602  and  _603
REMARK  249  A    between atoms: _603  and  _604
REMARK  250  A    between atoms: _604  and  _605
REMARK  251  A    between atoms: _610  and  _612
REMARK  252  A    between atoms: _612  and  _613
REMARK  253  A    between atoms: _612  and  _615
REMARK  254  A    between atoms: _615  and  _616
REMARK  255  A    between atoms: _619  and  _621
REMARK  256  A    between atoms: _621  and  _622
REMARK  257  A    between atoms: _624  and  _626
REMARK  258  A    between atoms: _626  and  _627
REMARK  259  A    between atoms: _630  and  _632
REMARK  260  A    between atoms: _632  and  _633
REMARK  261  A    between atoms: _632  and  _635
REMARK  262  A    between atoms: _635  and  _636
REMARK  263  A    between atoms: _641  and  _642
REMARK                            x       y       z     vdW  Elec       q    Type
REMARK                         _______ _______ _______ _____ _____    ______ ____
ROOT
ATOM      1  O   HOH     1      35.377  26.299  42.301  0.00  0.00    +0.000 OA
ENDROOT
TORSDOF 0
REMARK  Name = ../refined-set-2016/2qrg/2qrg_pocket.pdb
REMARK  263 active torsions:
REMARK  status: ('A' for Active; 'I' for Inactive)
REMARK    1  A    between atoms: _1  and  _3
REMARK    2  A    between atoms: _3  and  _4
REMARK    3  A    between atoms: _3  and  _6
REMARK    4  A    between atoms: _6  and  _7
REMARK    5  A    between atoms: _12  and  _13
REMARK    6  A    between atoms: _15  and  _17
REMARK    7  A    between atoms: _17  and  _18
REMARK    8  A    between atoms: _17  and  _20
REMARK    9  A    between atoms: _20  and  _21
REMARK   10  A    between atoms: _24  and  _26
REMARK   11  A    between atoms: _26  and  _27
REMARK   12  A    between atoms: _26  and  _29
REMARK   13  A    between atoms: _29  and  _30
REMARK   14  A    between atoms: _30  and  _31
REMARK   15  A    between atoms: _34  and  _36
REMARK   16  A    between atoms: _36  and  _37
REMARK   17  A    between atoms: _36  and  _39
REMARK   18  A    between atoms: _39  and  _40
REMARK   19  A    between atoms: _45  and  _47
REMARK   20  A    between atoms: _47  and  _48
REMARK   21  A    between atoms: _50  and  _52
REMARK   22  A    between atoms: _52  and  _53
REMARK   23  A    between atoms: _55  and  _57
REMARK   24  A    between atoms: _57  and  _58
REMARK   25  A    between atoms: _57  and  _60
REMARK   26  A    between atoms: _60  and  _61
REMARK   27  A    between atoms: _64  and  _66
REMARK   28  A    between atoms: _66  and  _67
REMARK   29  A    between atoms: _69  and  _71
REMARK   30  A    between atoms: _71  and  _72
REMARK   31  A    between atoms: _71  and  _74
REMARK   32  A    between atoms: _74  and  _75
REMARK   33  A    between atoms: _75  and  _76
REMARK   34  A    between atoms: _76  and  _77
REMARK   35  A    between atoms: _86  and  _88
REMARK   36  A    between atoms: _88  and  _89
REMARK   37  A    between atoms: _88  and  _91
REMARK   38  A    between atoms: _91  and  _92
REMARK   39  A    between atoms: _95  and  _97
REMARK   40  A    between atoms: _97  and  _98
REMARK   41  A    between atoms: _101  and  _103
REMARK   42  A    between atoms: _103  and  _104
REMARK   43  A    between atoms: _103  and  _106
REMARK   44  A    between atoms: _106  and  _107
REMARK   45  A    between atoms: _113  and  _115
REMARK   46  A    between atoms: _115  and  _116
REMARK   47  A    between atoms: _115  and  _118
REMARK   48  A    between atoms: _118  and  _119
REMARK   49  A    between atoms: _122  and  _124
REMARK   50  A    between atoms: _124  and  _125
REMARK   51  A    between atoms: _124  and  _127
REMARK   52  A    between atoms: _127  and  _128
REMARK   53  A    between atoms: _133  and  _134
REMARK   54  A    between atoms: _137  and  _138
REMARK   55  A    between atoms: _143  and  _145
REMARK   56  A    between atoms: _145  and  _146
REMARK   57  A    between atoms: _145  and  _148
REMARK   58  A    between atoms: _148  and  _149
REMARK   59  A    between atoms: _154  and  _156
REMARK   60  A    between atoms: _156  and  _157
REMARK   61  A    between atoms: _156  and  _159
REMARK   62  A    between atoms: _159  and  _160
REMARK   63  A    between atoms: _163  and  _165
REMARK   64  A    between atoms: _165  and  _166
REMARK   65  A    between atoms: _165  and  _168
REMARK   66  A    between atoms: _168  and  _169
REMARK   67  A    between atoms: _174  and  _176
REMARK   68  A    between atoms: _176  and  _177
REMARK   69  A    between atoms: _176  and  _179
REMARK   70  A    between atoms: _179  and  _180
REMARK   71  A    between atoms: _186  and  _188
REMARK   72  A    between atoms: _188  and  _189
REMARK   73  A    between atoms: _188  and  _191
REMARK   74  A    between atoms: _191  and  _192
REMARK   75  A    between atoms: _198  and  _200
REMARK   76  A    between atoms: _200  and  _201
REMARK   77  A    between atoms: _200  and  _203
REMARK   78  A    between atoms: _203  and  _204
REMARK   79  A    between atoms: _204  and  _205
REMARK   80  A    between atoms: _208  and  _210
REMARK   81  A    between atoms: _210  and  _211
REMARK   82  A    between atoms: _210  and  _213
REMARK   83  A    between atoms: _213  and  _214
REMARK   84  A    between atoms: _214  and  _215
REMARK   85  A    between atoms: _215  and  _216
REMARK   86  A    between atoms: _225  and  _227
REMARK   87  A    between atoms: _227  and  _228
REMARK   88  A    between atoms: _227  and  _230
REMARK   89  A    between atoms: _230  and  _231
REMARK   90  A    between atoms: _231  and  _232
REMARK   91  A    between atoms: _235  and  _237
REMARK   92  A    between atoms: _237  and  _238
REMARK   93  A    between atoms: _237  and  _240
REMARK   94  A    between atoms: _240  and  _241
REMARK   95  A    between atoms: _246  and  _248
REMARK   96  A    between atoms: _248  and  _249
REMARK   97  A    between atoms: _248  and  _251
REMARK   98  A    between atoms: _251  and  _252
REMARK   99  A    between atoms: _255  and  _257
REMARK  100  A    between atoms: _257  and  _258
REMARK  101  A    between atoms: _257  and  _260
REMARK  102  A    between atoms: _260  and  _261
REMARK  103  A    between atoms: _264  and  _266
REMARK  104  A    between atoms: _266  and  _267
REMARK  105  A    between atoms: _266  and  _269
REMARK  106  A    between atoms: _269  and  _270
REMARK  107  A    between atoms: _275  and  _277
REMARK  108  A    between atoms: _277  and  _278
REMARK  109  A    between atoms: _277  and  _280
REMARK  110  A    between atoms: _280  and  _281
REMARK  111  A    between atoms: _284  and  _286
REMARK  112  A    between atoms: _286  and  _287
REMARK  113  A    between atoms: _286  and  _289
REMARK  114  A    between atoms: _289  and  _290
REMARK  115  A    between atoms: _295  and  _297
REMARK  116  A    between atoms: _297  and  _298
REMARK  117  A    between atoms: _297  and  _300
REMARK  118  A    between atoms: _300  and  _301
REMARK  119  A    between atoms: _306  and  _308
REMARK  120  A    between atoms: _308  and  _309
REMARK  121  A    between atoms: _308  and  _311
REMARK  122  A    between atoms: _311  and  _312
REMARK  123  A    between atoms: _315  and  _317
REMARK  124  A    between atoms: _317  and  _318
REMARK  125  A    between atoms: _317  and  _320
REMARK  126  A    between atoms: _323  and  _325
REMARK  127  A    between atoms: _325  and  _326
REMARK  128  A    between atoms: _325  and  _328
REMARK  129  A    between atoms: _328  and  _329
REMARK  130  A    between atoms: _332  and  _334
REMARK  131  A    between atoms: _334  and  _335
REMARK  132  A    between atoms: _334  and  _337
REMARK  133  A    between atoms: _337  and  _338
REMARK  134  A    between atoms: _338  and  _339
REMARK  135  A    between atoms: _342  and  _344
REMARK  136  A    between atoms: _344  and  _345
REMARK  137  A    between atoms: _348  and  _350
REMARK  138  A    between atoms: _350  and  _351
REMARK  139  A    between atoms: _350  and  _353
REMARK  140  A    between atoms: _353  and  _354
REMARK  141  A    between atoms: _357  and  _359
REMARK  142  A    between atoms: _359  and  _360
REMARK  143  A    between atoms: _359  and  _362
REMARK  144  A    between atoms: _362  and  _363
REMARK  145  A    between atoms: _363  and  _364
REMARK  146  A    between atoms: _367  and  _369
REMARK  147  A    between atoms: _369  and  _370
REMARK  148  A    between atoms: _369  and  _372
REMARK  149  A    between atoms: _372  and  _373
REMARK  150  A    between atoms: _378  and  _380
REMARK  151  A    between atoms: _380  and  _381
REMARK  152  A    between atoms: _383  and  _385
REMARK  153  A    between atoms: _385  and  _386
REMARK  154  A    between atoms: _385  and  _388
REMARK  155  A    between atoms: _391  and  _393
REMARK  156  A    between atoms: _393  and  _394
REMARK  157  A    between atoms: _397  and  _399
REMARK  158  A    between atoms: _399  and  _400
REMARK  159  A    between atoms: _399  and  _402
REMARK  160  A    between atoms: _402  and  _403
REMARK  161  A    between atoms: _408  and  _410
REMARK  162  A    between atoms: _410  and  _411
REMARK  163  A    between atoms: _410  and  _413
REMARK  164  A    between atoms: _413  and  _414
REMARK  165  A    between atoms: _414  and  _415
REMARK  166  A    between atoms: _415  and  _416
REMARK  167  A    between atoms: _416  and  _417
REMARK  168  A    between atoms: _421  and  _423
REMARK  169  A    between atoms: _423  and  _424
REMARK  170  A    between atoms: _423  and  _426
REMARK  171  A    between atoms: _426  and  _427
REMARK  172  A    between atoms: _430  and  _432
REMARK  173  A    between atoms: _432  and  _433
REMARK  174  A    between atoms: _432  and  _435
REMARK  175  A    between atoms: _435  and  _436
REMARK  176  A    between atoms: _441  and  _443
REMARK  177  A    between atoms: _443  and  _444
REMARK  178  A    between atoms: _446  and  _448
REMARK  179  A    between atoms: _448  and  _449
REMARK  180  A    between atoms: _448  and  _451
REMARK  181  A    between atoms: _451  and  _452
REMARK  182  A    between atoms: _452  and  _453
REMARK  183  A    between atoms: _453  and  _454
REMARK  184  A    between atoms: _454  and  _455
REMARK  185  A    between atoms: _459  and  _461
REMARK  186  A    between atoms: _461  and  _462
REMARK  187  A    between atoms: _461  and  _464
REMARK  188  A    between atoms: _464  and  _465
REMARK  189  A    between atoms: _465  and  _466
REMARK  190  A    between atoms: _466  and  _467
REMARK  191  A    between atoms: _476  and  _478
REMARK  192  A    between atoms: _478  and  _479
REMARK  193  A    between atoms: _478  and  _481
REMARK  194  A    between atoms: _481  and  _482
REMARK  195  A    between atoms: _487  and  _488
REMARK  196  A    between atoms: _490  and  _492
REMARK  197  A    between atoms: _492  and  _493
REMARK  198  A    between atoms: _492  and  _495
REMARK  199  A    between atoms: _495  and  _496
REMARK  200  A    between atoms: _496  and  _497
REMARK  201  A    between atoms: _497  and  _498
REMARK  202  A    between atoms: _498  and  _499
REMARK  203  A    between atoms: _503  and  _505
REMARK  204  A    between atoms: _505  and  _506
REMARK  205  A    between atoms: _505  and  _508
REMARK  206  A    between atoms: _508  and  _509
REMARK  207  A    between atoms: _511  and  _513
REMARK  208  A    between atoms: _513  and  _514
REMARK  209  A    between atoms: _513  and  _516
REMARK  210  A    between atoms: _516  and  _517
REMARK  211  A    between atoms: _520  and  _522
REMARK  212  A    between atoms: _522  and  _523
REMARK  213  A    between atoms: _522  and  _525
REMARK  214  A    between atoms: _525  and  _526
REMARK  215  A    between atoms: _526  and  _527
REMARK  216  A    between atoms: _530  and  _532
REMARK  217  A    between atoms: _532  and  _533
REMARK  218  A    between atoms: _536  and  _538
REMARK  219  A    between atoms: _538  and  _539
REMARK  220  A    between atoms: _538  and  _541
REMARK  221  A    between atoms: _541  and  _542
REMARK  222  A    between atoms: _544  and  _546
REMARK  223  A    between atoms: _546  and  _547
REMARK  224  A    between atoms: _549  and  _551
REMARK  225  A    between atoms: _551  and  _552
REMARK  226  A    between atoms: _551  and  _554
REMARK  227  A    between atoms: _554  and  _555
REMARK  228  A    between atoms: _558  and  _560
REMARK  229  A    between atoms: _560  and  _561
REMARK  230  A    between atoms: _563  and  _565
REMARK  231  A    between atoms: _565  and  _566
REMARK  232  A    between atoms: _565  and  _568
REMARK  233  A    between atoms: _568  and  _569
REMARK  234  A    between atoms: _574  and  _576
REMARK  235  A    between atoms: _576  and  _577
REMARK  236  A    between atoms: _576  and  _579
REMARK  237  A    between atoms: _579  and  _580
REMARK  238  A    between atoms: _580  and  _581
REMARK  239  A    between atoms: _588  and  _589
REMARK  240  A    between atoms: _589  and  _605
REMARK  241  A    between atoms: _590  and  _592
REMARK  242  A    between atoms: _592  and  _593
REMARK  243  A    between atoms: _593  and  _594
REMARK  244  A    between atoms: _598  and  _600
REMARK  245  A    between atoms: _600  and  _601
REMARK  246  A    between atoms: _600  and  _608
REMARK  247  A    between atoms: _601  and  _602
REMARK  248  A    between atoms: _602  and  _603
REMARK  249  A    between atoms: _603  and  _604
REMARK  250  A    between atoms: _604  and  _605
REMARK  251  A    between atoms: _610  and  _612
REMARK  252  A    between atoms: _612  and  _613
REMARK  253  A    between atoms: _612  and  _615
REMARK  254  A    between atoms: _615  and  _616
REMARK  255  A    between atoms: _619  and  _621
REMARK  256  A    between atoms: _621  and  _622
REMARK  257  A    between atoms: _624  and  _626
REMARK  258  A    between atoms: _626  and  _627
REMARK  259  A    between atoms: _630  and  _632
REMARK  260  A    between atoms: _632  and  _633
REMARK  261  A    between atoms: _632  and  _635
REMARK  262  A    between atoms: _635  and  _636
REMARK  263  A    between atoms: _641  and  _642
REMARK                            x       y       z     vdW  Elec       q    Type
REMARK                         _______ _______ _______ _____ _____    ______ ____
ROOT
ATOM      1  O   HOH     1      33.618  12.742  26.352  0.00  0.00    +0.000 OA
ENDROOT
TORSDOF 0
REMARK  Name = ../refined-set-2016/2qrg/2qrg_pocket.pdb
REMARK  263 active torsions:
REMARK  status: ('A' for Active; 'I' for Inactive)
REMARK    1  A    between atoms: _1  and  _3
REMARK    2  A    between atoms: _3  and  _4
REMARK    3  A    between atoms: _3  and  _6
REMARK    4  A    between atoms: _6  and  _7
REMARK    5  A    between atoms: _12  and  _13
REMARK    6  A    between atoms: _15  and  _17
REMARK    7  A    between atoms: _17  and  _18
REMARK    8  A    between atoms: _17  and  _20
REMARK    9  A    between atoms: _20  and  _21
REMARK   10  A    between atoms: _24  and  _26
REMARK   11  A    between atoms: _26  and  _27
REMARK   12  A    between atoms: _26  and  _29
REMARK   13  A    between atoms: _29  and  _30
REMARK   14  A    between atoms: _30  and  _31
REMARK   15  A    between atoms: _34  and  _36
REMARK   16  A    between atoms: _36  and  _37
REMARK   17  A    between atoms: _36  and  _39
REMARK   18  A    between atoms: _39  and  _40
REMARK   19  A    between atoms: _45  and  _47
REMARK   20  A    between atoms: _47  and  _48
REMARK   21  A    between atoms: _50  and  _52
REMARK   22  A    between atoms: _52  and  _53
REMARK   23  A    between atoms: _55  and  _57
REMARK   24  A    between atoms: _57  and  _58
REMARK   25  A    between atoms: _57  and  _60
REMARK   26  A    between atoms: _60  and  _61
REMARK   27  A    between atoms: _64  and  _66
REMARK   28  A    between atoms: _66  and  _67
REMARK   29  A    between atoms: _69  and  _71
REMARK   30  A    between atoms: _71  and  _72
REMARK   31  A    between atoms: _71  and  _74
REMARK   32  A    between atoms: _74  and  _75
REMARK   33  A    between atoms: _75  and  _76
REMARK   34  A    between atoms: _76  and  _77
REMARK   35  A    between atoms: _86  and  _88
REMARK   36  A    between atoms: _88  and  _89
REMARK   37  A    between atoms: _88  and  _91
REMARK   38  A    between atoms: _91  and  _92
REMARK   39  A    between atoms: _95  and  _97
REMARK   40  A    between atoms: _97  and  _98
REMARK   41  A    between atoms: _101  and  _103
REMARK   42  A    between atoms: _103  and  _104
REMARK   43  A    between atoms: _103  and  _106
REMARK   44  A    between atoms: _106  and  _107
REMARK   45  A    between atoms: _113  and  _115
REMARK   46  A    between atoms: _115  and  _116
REMARK   47  A    between atoms: _115  and  _118
REMARK   48  A    between atoms: _118  and  _119
REMARK   49  A    between atoms: _122  and  _124
REMARK   50  A    between atoms: _124  and  _125
REMARK   51  A    between atoms: _124  and  _127
REMARK   52  A    between atoms: _127  and  _128
REMARK   53  A    between atoms: _133  and  _134
REMARK   54  A    between atoms: _137  and  _138
REMARK   55  A    between atoms: _143  and  _145
REMARK   56  A    between atoms: _145  and  _146
REMARK   57  A    between atoms: _145  and  _148
REMARK   58  A    between atoms: _148  and  _149
REMARK   59  A    between atoms: _154  and  _156
REMARK   60  A    between atoms: _156  and  _157
REMARK   61  A    between atoms: _156  and  _159
REMARK   62  A    between atoms: _159  and  _160
REMARK   63  A    between atoms: _163  and  _165
REMARK   64  A    between atoms: _165  and  _166
REMARK   65  A    between atoms: _165  and  _168
REMARK   66  A    between atoms: _168  and  _169
REMARK   67  A    between atoms: _174  and  _176
REMARK   68  A    between atoms: _176  and  _177
REMARK   69  A    between atoms: _176  and  _179
REMARK   70  A    between atoms: _179  and  _180
REMARK   71  A    between atoms: _186  and  _188
REMARK   72  A    between atoms: _188  and  _189
REMARK   73  A    between atoms: _188  and  _191
REMARK   74  A    between atoms: _191  and  _192
REMARK   75  A    between atoms: _198  and  _200
REMARK   76  A    between atoms: _200  and  _201
REMARK   77  A    between atoms: _200  and  _203
REMARK   78  A    between atoms: _203  and  _204
REMARK   79  A    between atoms: _204  and  _205
REMARK   80  A    between atoms: _208  and  _210
REMARK   81  A    between atoms: _210  and  _211
REMARK   82  A    between atoms: _210  and  _213
REMARK   83  A    between atoms: _213  and  _214
REMARK   84  A    between atoms: _214  and  _215
REMARK   85  A    between atoms: _215  and  _216
REMARK   86  A    between atoms: _225  and  _227
REMARK   87  A    between atoms: _227  and  _228
REMARK   88  A    between atoms: _227  and  _230
REMARK   89  A    between atoms: _230  and  _231
REMARK   90  A    between atoms: _231  and  _232
REMARK   91  A    between atoms: _235  and  _237
REMARK   92  A    between atoms: _237  and  _238
REMARK   93  A    between atoms: _237  and  _240
REMARK   94  A    between atoms: _240  and  _241
REMARK   95  A    between atoms: _246  and  _248
REMARK   96  A    between atoms: _248  and  _249
REMARK   97  A    between atoms: _248  and  _251
REMARK   98  A    between atoms: _251  and  _252
REMARK   99  A    between atoms: _255  and  _257
REMARK  100  A    between atoms: _257  and  _258
REMARK  101  A    between atoms: _257  and  _260
REMARK  102  A    between atoms: _260  and  _261
REMARK  103  A    between atoms: _264  and  _266
REMARK  104  A    between atoms: _266  and  _267
REMARK  105  A    between atoms: _266  and  _269
REMARK  106  A    between atoms: _269  and  _270
REMARK  107  A    between atoms: _275  and  _277
REMARK  108  A    between atoms: _277  and  _278
REMARK  109  A    between atoms: _277  and  _280
REMARK  110  A    between atoms: _280  and  _281
REMARK  111  A    between atoms: _284  and  _286
REMARK  112  A    between atoms: _286  and  _287
REMARK  113  A    between atoms: _286  and  _289
REMARK  114  A    between atoms: _289  and  _290
REMARK  115  A    between atoms: _295  and  _297
REMARK  116  A    between atoms: _297  and  _298
REMARK  117  A    between atoms: _297  and  _300
REMARK  118  A    between atoms: _300  and  _301
REMARK  119  A    between atoms: _306  and  _308
REMARK  120  A    between atoms: _308  and  _309
REMARK  121  A    between atoms: _308  and  _311
REMARK  122  A    between atoms: _311  and  _312
REMARK  123  A    between atoms: _315  and  _317
REMARK  124  A    between atoms: _317  and  _318
REMARK  125  A    between atoms: _317  and  _320
REMARK  126  A    between atoms: _323  and  _325
REMARK  127  A    between atoms: _325  and  _326
REMARK  128  A    between atoms: _325  and  _328
REMARK  129  A    between atoms: _328  and  _329
REMARK  130  A    between atoms: _332  and  _334
REMARK  131  A    between atoms: _334  and  _335
REMARK  132  A    between atoms: _334  and  _337
REMARK  133  A    between atoms: _337  and  _338
REMARK  134  A    between atoms: _338  and  _339
REMARK  135  A    between atoms: _342  and  _344
REMARK  136  A    between atoms: _344  and  _345
REMARK  137  A    between atoms: _348  and  _350
REMARK  138  A    between atoms: _350  and  _351
REMARK  139  A    between atoms: _350  and  _353
REMARK  140  A    between atoms: _353  and  _354
REMARK  141  A    between atoms: _357  and  _359
REMARK  142  A    between atoms: _359  and  _360
REMARK  143  A    between atoms: _359  and  _362
REMARK  144  A    between atoms: _362  and  _363
REMARK  145  A    between atoms: _363  and  _364
REMARK  146  A    between atoms: _367  and  _369
REMARK  147  A    between atoms: _369  and  _370
REMARK  148  A    between atoms: _369  and  _372
REMARK  149  A    between atoms: _372  and  _373
REMARK  150  A    between atoms: _378  and  _380
REMARK  151  A    between atoms: _380  and  _381
REMARK  152  A    between atoms: _383  and  _385
REMARK  153  A    between atoms: _385  and  _386
REMARK  154  A    between atoms: _385  and  _388
REMARK  155  A    between atoms: _391  and  _393
REMARK  156  A    between atoms: _393  and  _394
REMARK  157  A    between atoms: _397  and  _399
REMARK  158  A    between atoms: _399  and  _400
REMARK  159  A    between atoms: _399  and  _402
REMARK  160  A    between atoms: _402  and  _403
REMARK  161  A    between atoms: _408  and  _410
REMARK  162  A    between atoms: _410  and  _411
REMARK  163  A    between atoms: _410  and  _413
REMARK  164  A    between atoms: _413  and  _414
REMARK  165  A    between atoms: _414  and  _415
REMARK  166  A    between atoms: _415  and  _416
REMARK  167  A    between atoms: _416  and  _417
REMARK  168  A    between atoms: _421  and  _423
REMARK  169  A    between atoms: _423  and  _424
REMARK  170  A    between atoms: _423  and  _426
REMARK  171  A    between atoms: _426  and  _427
REMARK  172  A    between atoms: _430  and  _432
REMARK  173  A    between atoms: _432  and  _433
REMARK  174  A    between atoms: _432  and  _435
REMARK  175  A    between atoms: _435  and  _436
REMARK  176  A    between atoms: _441  and  _443
REMARK  177  A    between atoms: _443  and  _444
REMARK  178  A    between atoms: _446  and  _448
REMARK  179  A    between atoms: _448  and  _449
REMARK  180  A    between atoms: _448  and  _451
REMARK  181  A    between atoms: _451  and  _452
REMARK  182  A    between atoms: _452  and  _453
REMARK  183  A    between atoms: _453  and  _454
REMARK  184  A    between atoms: _454  and  _455
REMARK  185  A    between atoms: _459  and  _461
REMARK  186  A    between atoms: _461  and  _462
REMARK  187  A    between atoms: _461  and  _464
REMARK  188  A    between atoms: _464  and  _465
REMARK  189  A    between atoms: _465  and  _466
REMARK  190  A    between atoms: _466  and  _467
REMARK  191  A    between atoms: _476  and  _478
REMARK  192  A    between atoms: _478  and  _479
REMARK  193  A    between atoms: _478  and  _481
REMARK  194  A    between atoms: _481  and  _482
REMARK  195  A    between atoms: _487  and  _488
REMARK  196  A    between atoms: _490  and  _492
REMARK  197  A    between atoms: _492  and  _493
REMARK  198  A    between atoms: _492  and  _495
REMARK  199  A    between atoms: _495  and  _496
REMARK  200  A    between atoms: _496  and  _497
REMARK  201  A    between atoms: _497  and  _498
REMARK  202  A    between atoms: _498  and  _499
REMARK  203  A    between atoms: _503  and  _505
REMARK  204  A    between atoms: _505  and  _506
REMARK  205  A    between atoms: _505  and  _508
REMARK  206  A    between atoms: _508  and  _509
REMARK  207  A    between atoms: _511  and  _513
REMARK  208  A    between atoms: _513  and  _514
REMARK  209  A    between atoms: _513  and  _516
REMARK  210  A    between atoms: _516  and  _517
REMARK  211  A    between atoms: _520  and  _522
REMARK  212  A    between atoms: _522  and  _523
REMARK  213  A    between atoms: _522  and  _525
REMARK  214  A    between atoms: _525  and  _526
REMARK  215  A    between atoms: _526  and  _527
REMARK  216  A    between atoms: _530  and  _532
REMARK  217  A    between atoms: _532  and  _533
REMARK  218  A    between atoms: _536  and  _538
REMARK  219  A    between atoms: _538  and  _539
REMARK  220  A    between atoms: _538  and  _541
REMARK  221  A    between atoms: _541  and  _542
REMARK  222  A    between atoms: _544  and  _546
REMARK  223  A    between atoms: _546  and  _547
REMARK  224  A    between atoms: _549  and  _551
REMARK  225  A    between atoms: _551  and  _552
REMARK  226  A    between atoms: _551  and  _554
REMARK  227  A    between atoms: _554  and  _555
REMARK  228  A    between atoms: _558  and  _560
REMARK  229  A    between atoms: _560  and  _561
REMARK  230  A    between atoms: _563  and  _565
REMARK  231  A    between atoms: _565  and  _566
REMARK  232  A    between atoms: _565  and  _568
REMARK  233  A    between atoms: _568  and  _569
REMARK  234  A    between atoms: _574  and  _576
REMARK  235  A    between atoms: _576  and  _577
REMARK  236  A    between atoms: _576  and  _579
REMARK  237  A    between atoms: _579  and  _580
REMARK  238  A    between atoms: _580  and  _581
REMARK  239  A    between atoms: _588  and  _589
REMARK  240  A    between atoms: _589  and  _605
REMARK  241  A    between atoms: _590  and  _592
REMARK  242  A    between atoms: _592  and  _593
REMARK  243  A    between atoms: _593  and  _594
REMARK  244  A    between atoms: _598  and  _600
REMARK  245  A    between atoms: _600  and  _601
REMARK  246  A    between atoms: _600  and  _608
REMARK  247  A    between atoms: _601  and  _602
REMARK  248  A    between atoms: _602  and  _603
REMARK  249  A    between atoms: _603  and  _604
REMARK  250  A    between atoms: _604  and  _605
REMARK  251  A    between atoms: _610  and  _612
REMARK  252  A    between atoms: _612  and  _613
REMARK  253  A    between atoms: _612  and  _615
REMARK  254  A    between atoms: _615  and  _616
REMARK  255  A    between atoms: _619  and  _621
REMARK  256  A    between atoms: _621  and  _622
REMARK  257  A    between atoms: _624  and  _626
REMARK  258  A    between atoms: _626  and  _627
REMARK  259  A    between atoms: _630  and  _632
REMARK  260  A    between atoms: _632  and  _633
REMARK  261  A    between atoms: _632  and  _635
REMARK  262  A    between atoms: _635  and  _636
REMARK  263  A    between atoms: _641  and  _642
REMARK                            x       y       z     vdW  Elec       q    Type
REMARK                         _______ _______ _______ _____ _____    ______ ____
ROOT
ATOM      1  O   HOH     1      29.054  27.584  20.723  0.00  0.00    +0.000 OA
ENDROOT
TORSDOF 0
REMARK  Name = ../refined-set-2016/2qrg/2qrg_pocket.pdb
REMARK  263 active torsions:
REMARK  status: ('A' for Active; 'I' for Inactive)
REMARK    1  A    between atoms: _1  and  _3
REMARK    2  A    between atoms: _3  and  _4
REMARK    3  A    between atoms: _3  and  _6
REMARK    4  A    between atoms: _6  and  _7
REMARK    5  A    between atoms: _12  and  _13
REMARK    6  A    between atoms: _15  and  _17
REMARK    7  A    between atoms: _17  and  _18
REMARK    8  A    between atoms: _17  and  _20
REMARK    9  A    between atoms: _20  and  _21
REMARK   10  A    between atoms: _24  and  _26
REMARK   11  A    between atoms: _26  and  _27
REMARK   12  A    between atoms: _26  and  _29
REMARK   13  A    between atoms: _29  and  _30
REMARK   14  A    between atoms: _30  and  _31
REMARK   15  A    between atoms: _34  and  _36
REMARK   16  A    between atoms: _36  and  _37
REMARK   17  A    between atoms: _36  and  _39
REMARK   18  A    between atoms: _39  and  _40
REMARK   19  A    between atoms: _45  and  _47
REMARK   20  A    between atoms: _47  and  _48
REMARK   21  A    between atoms: _50  and  _52
REMARK   22  A    between atoms: _52  and  _53
REMARK   23  A    between atoms: _55  and  _57
REMARK   24  A    between atoms: _57  and  _58
REMARK   25  A    between atoms: _57  and  _60
REMARK   26  A    between atoms: _60  and  _61
REMARK   27  A    between atoms: _64  and  _66
REMARK   28  A    between atoms: _66  and  _67
REMARK   29  A    between atoms: _69  and  _71
REMARK   30  A    between atoms: _71  and  _72
REMARK   31  A    between atoms: _71  and  _74
REMARK   32  A    between atoms: _74  and  _75
REMARK   33  A    between atoms: _75  and  _76
REMARK   34  A    between atoms: _76  and  _77
REMARK   35  A    between atoms: _86  and  _88
REMARK   36  A    between atoms: _88  and  _89
REMARK   37  A    between atoms: _88  and  _91
REMARK   38  A    between atoms: _91  and  _92
REMARK   39  A    between atoms: _95  and  _97
REMARK   40  A    between atoms: _97  and  _98
REMARK   41  A    between atoms: _101  and  _103
REMARK   42  A    between atoms: _103  and  _104
REMARK   43  A    between atoms: _103  and  _106
REMARK   44  A    between atoms: _106  and  _107
REMARK   45  A    between atoms: _113  and  _115
REMARK   46  A    between atoms: _115  and  _116
REMARK   47  A    between atoms: _115  and  _118
REMARK   48  A    between atoms: _118  and  _119
REMARK   49  A    between atoms: _122  and  _124
REMARK   50  A    between atoms: _124  and  _125
REMARK   51  A    between atoms: _124  and  _127
REMARK   52  A    between atoms: _127  and  _128
REMARK   53  A    between atoms: _133  and  _134
REMARK   54  A    between atoms: _137  and  _138
REMARK   55  A    between atoms: _143  and  _145
REMARK   56  A    between atoms: _145  and  _146
REMARK   57  A    between atoms: _145  and  _148
REMARK   58  A    between atoms: _148  and  _149
REMARK   59  A    between atoms: _154  and  _156
REMARK   60  A    between atoms: _156  and  _157
REMARK   61  A    between atoms: _156  and  _159
REMARK   62  A    between atoms: _159  and  _160
REMARK   63  A    between atoms: _163  and  _165
REMARK   64  A    between atoms: _165  and  _166
REMARK   65  A    between atoms: _165  and  _168
REMARK   66  A    between atoms: _168  and  _169
REMARK   67  A    between atoms: _174  and  _176
REMARK   68  A    between atoms: _176  and  _177
REMARK   69  A    between atoms: _176  and  _179
REMARK   70  A    between atoms: _179  and  _180
REMARK   71  A    between atoms: _186  and  _188
REMARK   72  A    between atoms: _188  and  _189
REMARK   73  A    between atoms: _188  and  _191
REMARK   74  A    between atoms: _191  and  _192
REMARK   75  A    between atoms: _198  and  _200
REMARK   76  A    between atoms: _200  and  _201
REMARK   77  A    between atoms: _200  and  _203
REMARK   78  A    between atoms: _203  and  _204
REMARK   79  A    between atoms: _204  and  _205
REMARK   80  A    between atoms: _208  and  _210
REMARK   81  A    between atoms: _210  and  _211
REMARK   82  A    between atoms: _210  and  _213
REMARK   83  A    between atoms: _213  and  _214
REMARK   84  A    between atoms: _214  and  _215
REMARK   85  A    between atoms: _215  and  _216
REMARK   86  A    between atoms: _225  and  _227
REMARK   87  A    between atoms: _227  and  _228
REMARK   88  A    between atoms: _227  and  _230
REMARK   89  A    between atoms: _230  and  _231
REMARK   90  A    between atoms: _231  and  _232
REMARK   91  A    between atoms: _235  and  _237
REMARK   92  A    between atoms: _237  and  _238
REMARK   93  A    between atoms: _237  and  _240
REMARK   94  A    between atoms: _240  and  _241
REMARK   95  A    between atoms: _246  and  _248
REMARK   96  A    between atoms: _248  and  _249
REMARK   97  A    between atoms: _248  and  _251
REMARK   98  A    between atoms: _251  and  _252
REMARK   99  A    between atoms: _255  and  _257
REMARK  100  A    between atoms: _257  and  _258
REMARK  101  A    between atoms: _257  and  _260
REMARK  102  A    between atoms: _260  and  _261
REMARK  103  A    between atoms: _264  and  _266
REMARK  104  A    between atoms: _266  and  _267
REMARK  105  A    between atoms: _266  and  _269
REMARK  106  A    between atoms: _269  and  _270
REMARK  107  A    between atoms: _275  and  _277
REMARK  108  A    between atoms: _277  and  _278
REMARK  109  A    between atoms: _277  and  _280
REMARK  110  A    between atoms: _280  and  _281
REMARK  111  A    between atoms: _284  and  _286
REMARK  112  A    between atoms: _286  and  _287
REMARK  113  A    between atoms: _286  and  _289
REMARK  114  A    between atoms: _289  and  _290
REMARK  115  A    between atoms: _295  and  _297
REMARK  116  A    between atoms: _297  and  _298
REMARK  117  A    between atoms: _297  and  _300
REMARK  118  A    between atoms: _300  and  _301
REMARK  119  A    between atoms: _306  and  _308
REMARK  120  A    between atoms: _308  and  _309
REMARK  121  A    between atoms: _308  and  _311
REMARK  122  A    between atoms: _311  and  _312
REMARK  123  A    between atoms: _315  and  _317
REMARK  124  A    between atoms: _317  and  _318
REMARK  125  A    between atoms: _317  and  _320
REMARK  126  A    between atoms: _323  and  _325
REMARK  127  A    between atoms: _325  and  _326
REMARK  128  A    between atoms: _325  and  _328
REMARK  129  A    between atoms: _328  and  _329
REMARK  130  A    between atoms: _332  and  _334
REMARK  131  A    between atoms: _334  and  _335
REMARK  132  A    between atoms: _334  and  _337
REMARK  133  A    between atoms: _337  and  _338
REMARK  134  A    between atoms: _338  and  _339
REMARK  135  A    between atoms: _342  and  _344
REMARK  136  A    between atoms: _344  and  _345
REMARK  137  A    between atoms: _348  and  _350
REMARK  138  A    between atoms: _350  and  _351
REMARK  139  A    between atoms: _350  and  _353
REMARK  140  A    between atoms: _353  and  _354
REMARK  141  A    between atoms: _357  and  _359
REMARK  142  A    between atoms: _359  and  _360
REMARK  143  A    between atoms: _359  and  _362
REMARK  144  A    between atoms: _362  and  _363
REMARK  145  A    between atoms: _363  and  _364
REMARK  146  A    between atoms: _367  and  _369
REMARK  147  A    between atoms: _369  and  _370
REMARK  148  A    between atoms: _369  and  _372
REMARK  149  A    between atoms: _372  and  _373
REMARK  150  A    between atoms: _378  and  _380
REMARK  151  A    between atoms: _380  and  _381
REMARK  152  A    between atoms: _383  and  _385
REMARK  153  A    between atoms: _385  and  _386
REMARK  154  A    between atoms: _385  and  _388
REMARK  155  A    between atoms: _391  and  _393
REMARK  156  A    between atoms: _393  and  _394
REMARK  157  A    between atoms: _397  and  _399
REMARK  158  A    between atoms: _399  and  _400
REMARK  159  A    between atoms: _399  and  _402
REMARK  160  A    between atoms: _402  and  _403
REMARK  161  A    between atoms: _408  and  _410
REMARK  162  A    between atoms: _410  and  _411
REMARK  163  A    between atoms: _410  and  _413
REMARK  164  A    between atoms: _413  and  _414
REMARK  165  A    between atoms: _414  and  _415
REMARK  166  A    between atoms: _415  and  _416
REMARK  167  A    between atoms: _416  and  _417
REMARK  168  A    between atoms: _421  and  _423
REMARK  169  A    between atoms: _423  and  _424
REMARK  170  A    between atoms: _423  and  _426
REMARK  171  A    between atoms: _426  and  _427
REMARK  172  A    between atoms: _430  and  _432
REMARK  173  A    between atoms: _432  and  _433
REMARK  174  A    between atoms: _432  and  _435
REMARK  175  A    between atoms: _435  and  _436
REMARK  176  A    between atoms: _441  and  _443
REMARK  177  A    between atoms: _443  and  _444
REMARK  178  A    between atoms: _446  and  _448
REMARK  179  A    between atoms: _448  and  _449
REMARK  180  A    between atoms: _448  and  _451
REMARK  181  A    between atoms: _451  and  _452
REMARK  182  A    between atoms: _452  and  _453
REMARK  183  A    between atoms: _453  and  _454
REMARK  184  A    between atoms: _454  and  _455
REMARK  185  A    between atoms: _459  and  _461
REMARK  186  A    between atoms: _461  and  _462
REMARK  187  A    between atoms: _461  and  _464
REMARK  188  A    between atoms: _464  and  _465
REMARK  189  A    between atoms: _465  and  _466
REMARK  190  A    between atoms: _466  and  _467
REMARK  191  A    between atoms: _476  and  _478
REMARK  192  A    between atoms: _478  and  _479
REMARK  193  A    between atoms: _478  and  _481
REMARK  194  A    between atoms: _481  and  _482
REMARK  195  A    between atoms: _487  and  _488
REMARK  196  A    between atoms: _490  and  _492
REMARK  197  A    between atoms: _492  and  _493
REMARK  198  A    between atoms: _492  and  _495
REMARK  199  A    between atoms: _495  and  _496
REMARK  200  A    between atoms: _496  and  _497
REMARK  201  A    between atoms: _497  and  _498
REMARK  202  A    between atoms: _498  and  _499
REMARK  203  A    between atoms: _503  and  _505
REMARK  204  A    between atoms: _505  and  _506
REMARK  205  A    between atoms: _505  and  _508
REMARK  206  A    between atoms: _508  and  _509
REMARK  207  A    between atoms: _511  and  _513
REMARK  208  A    between atoms: _513  and  _514
REMARK  209  A    between atoms: _513  and  _516
REMARK  210  A    between atoms: _516  and  _517
REMARK  211  A    between atoms: _520  and  _522
REMARK  212  A    between atoms: _522  and  _523
REMARK  213  A    between atoms: _522  and  _525
REMARK  214  A    between atoms: _525  and  _526
REMARK  215  A    between atoms: _526  and  _527
REMARK  216  A    between atoms: _530  and  _532
REMARK  217  A    between atoms: _532  and  _533
REMARK  218  A    between atoms: _536  and  _538
REMARK  219  A    between atoms: _538  and  _539
REMARK  220  A    between atoms: _538  and  _541
REMARK  221  A    between atoms: _541  and  _542
REMARK  222  A    between atoms: _544  and  _546
REMARK  223  A    between atoms: _546  and  _547
REMARK  224  A    between atoms: _549  and  _551
REMARK  225  A    between atoms: _551  and  _552
REMARK  226  A    between atoms: _551  and  _554
REMARK  227  A    between atoms: _554  and  _555
REMARK  228  A    between atoms: _558  and  _560
REMARK  229  A    between atoms: _560  and  _561
REMARK  230  A    between atoms: _563  and  _565
REMARK  231  A    between atoms: _565  and  _566
REMARK  232  A    between atoms: _565  and  _568
REMARK  233  A    between atoms: _568  and  _569
REMARK  234  A    between atoms: _574  and  _576
REMARK  235  A    between atoms: _576  and  _577
REMARK  236  A    between atoms: _576  and  _579
REMARK  237  A    between atoms: _579  and  _580
REMARK  238  A    between atoms: _580  and  _581
REMARK  239  A    between atoms: _588  and  _589
REMARK  240  A    between atoms: _589  and  _605
REMARK  241  A    between atoms: _590  and  _592
REMARK  242  A    between atoms: _592  and  _593
REMARK  243  A    between atoms: _593  and  _594
REMARK  244  A    between atoms: _598  and  _600
REMARK  245  A    between atoms: _600  and  _601
REMARK  246  A    between atoms: _600  and  _608
REMARK  247  A    between atoms: _601  and  _602
REMARK  248  A    between atoms: _602  and  _603
REMARK  249  A    between atoms: _603  and  _604
REMARK  250  A    between atoms: _604  and  _605
REMARK  251  A    between atoms: _610  and  _612
REMARK  252  A    between atoms: _612  and  _613
REMARK  253  A    between atoms: _612  and  _615
REMARK  254  A    between atoms: _615  and  _616
REMARK  255  A    between atoms: _619  and  _621
REMARK  256  A    between atoms: _621  and  _622
REMARK  257  A    between atoms: _624  and  _626
REMARK  258  A    between atoms: _626  and  _627
REMARK  259  A    between atoms: _630  and  _632
REMARK  260  A    between atoms: _632  and  _633
REMARK  261  A    between atoms: _632  and  _635
REMARK  262  A    between atoms: _635  and  _636
REMARK  263  A    between atoms: _641  and  _642
REMARK                            x       y       z     vdW  Elec       q    Type
REMARK                         _______ _______ _______ _____ _____    ______ ____
ROOT
ATOM      1  O   HOH     1      26.080  16.674  28.626  0.00  0.00    +0.000 OA
ENDROOT
TORSDOF 0
REMARK  Name = ../refined-set-2016/2qrg/2qrg_pocket.pdb
REMARK  263 active torsions:
REMARK  status: ('A' for Active; 'I' for Inactive)
REMARK    1  A    between atoms: _1  and  _3
REMARK    2  A    between atoms: _3  and  _4
REMARK    3  A    between atoms: _3  and  _6
REMARK    4  A    between atoms: _6  and  _7
REMARK    5  A    between atoms: _12  and  _13
REMARK    6  A    between atoms: _15  and  _17
REMARK    7  A    between atoms: _17  and  _18
REMARK    8  A    between atoms: _17  and  _20
REMARK    9  A    between atoms: _20  and  _21
REMARK   10  A    between atoms: _24  and  _26
REMARK   11  A    between atoms: _26  and  _27
REMARK   12  A    between atoms: _26  and  _29
REMARK   13  A    between atoms: _29  and  _30
REMARK   14  A    between atoms: _30  and  _31
REMARK   15  A    between atoms: _34  and  _36
REMARK   16  A    between atoms: _36  and  _37
REMARK   17  A    between atoms: _36  and  _39
REMARK   18  A    between atoms: _39  and  _40
REMARK   19  A    between atoms: _45  and  _47
REMARK   20  A    between atoms: _47  and  _48
REMARK   21  A    between atoms: _50  and  _52
REMARK   22  A    between atoms: _52  and  _53
REMARK   23  A    between atoms: _55  and  _57
REMARK   24  A    between atoms: _57  and  _58
REMARK   25  A    between atoms: _57  and  _60
REMARK   26  A    between atoms: _60  and  _61
REMARK   27  A    between atoms: _64  and  _66
REMARK   28  A    between atoms: _66  and  _67
REMARK   29  A    between atoms: _69  and  _71
REMARK   30  A    between atoms: _71  and  _72
REMARK   31  A    between atoms: _71  and  _74
REMARK   32  A    between atoms: _74  and  _75
REMARK   33  A    between atoms: _75  and  _76
REMARK   34  A    between atoms: _76  and  _77
REMARK   35  A    between atoms: _86  and  _88
REMARK   36  A    between atoms: _88  and  _89
REMARK   37  A    between atoms: _88  and  _91
REMARK   38  A    between atoms: _91  and  _92
REMARK   39  A    between atoms: _95  and  _97
REMARK   40  A    between atoms: _97  and  _98
REMARK   41  A    between atoms: _101  and  _103
REMARK   42  A    between atoms: _103  and  _104
REMARK   43  A    between atoms: _103  and  _106
REMARK   44  A    between atoms: _106  and  _107
REMARK   45  A    between atoms: _113  and  _115
REMARK   46  A    between atoms: _115  and  _116
REMARK   47  A    between atoms: _115  and  _118
REMARK   48  A    between atoms: _118  and  _119
REMARK   49  A    between atoms: _122  and  _124
REMARK   50  A    between atoms: _124  and  _125
REMARK   51  A    between atoms: _124  and  _127
REMARK   52  A    between atoms: _127  and  _128
REMARK   53  A    between atoms: _133  and  _134
REMARK   54  A    between atoms: _137  and  _138
REMARK   55  A    between atoms: _143  and  _145
REMARK   56  A    between atoms: _145  and  _146
REMARK   57  A    between atoms: _145  and  _148
REMARK   58  A    between atoms: _148  and  _149
REMARK   59  A    between atoms: _154  and  _156
REMARK   60  A    between atoms: _156  and  _157
REMARK   61  A    between atoms: _156  and  _159
REMARK   62  A    between atoms: _159  and  _160
REMARK   63  A    between atoms: _163  and  _165
REMARK   64  A    between atoms: _165  and  _166
REMARK   65  A    between atoms: _165  and  _168
REMARK   66  A    between atoms: _168  and  _169
REMARK   67  A    between atoms: _174  and  _176
REMARK   68  A    between atoms: _176  and  _177
REMARK   69  A    between atoms: _176  and  _179
REMARK   70  A    between atoms: _179  and  _180
REMARK   71  A    between atoms: _186  and  _188
REMARK   72  A    between atoms: _188  and  _189
REMARK   73  A    between atoms: _188  and  _191
REMARK   74  A    between atoms: _191  and  _192
REMARK   75  A    between atoms: _198  and  _200
REMARK   76  A    between atoms: _200  and  _201
REMARK   77  A    between atoms: _200  and  _203
REMARK   78  A    between atoms: _203  and  _204
REMARK   79  A    between atoms: _204  and  _205
REMARK   80  A    between atoms: _208  and  _210
REMARK   81  A    between atoms: _210  and  _211
REMARK   82  A    between atoms: _210  and  _213
REMARK   83  A    between atoms: _213  and  _214
REMARK   84  A    between atoms: _214  and  _215
REMARK   85  A    between atoms: _215  and  _216
REMARK   86  A    between atoms: _225  and  _227
REMARK   87  A    between atoms: _227  and  _228
REMARK   88  A    between atoms: _227  and  _230
REMARK   89  A    between atoms: _230  and  _231
REMARK   90  A    between atoms: _231  and  _232
REMARK   91  A    between atoms: _235  and  _237
REMARK   92  A    between atoms: _237  and  _238
REMARK   93  A    between atoms: _237  and  _240
REMARK   94  A    between atoms: _240  and  _241
REMARK   95  A    between atoms: _246  and  _248
REMARK   96  A    between atoms: _248  and  _249
REMARK   97  A    between atoms: _248  and  _251
REMARK   98  A    between atoms: _251  and  _252
REMARK   99  A    between atoms: _255  and  _257
REMARK  100  A    between atoms: _257  and  _258
REMARK  101  A    between atoms: _257  and  _260
REMARK  102  A    between atoms: _260  and  _261
REMARK  103  A    between atoms: _264  and  _266
REMARK  104  A    between atoms: _266  and  _267
REMARK  105  A    between atoms: _266  and  _269
REMARK  106  A    between atoms: _269  and  _270
REMARK  107  A    between atoms: _275  and  _277
REMARK  108  A    between atoms: _277  and  _278
REMARK  109  A    between atoms: _277  and  _280
REMARK  110  A    between atoms: _280  and  _281
REMARK  111  A    between atoms: _284  and  _286
REMARK  112  A    between atoms: _286  and  _287
REMARK  113  A    between atoms: _286  and  _289
REMARK  114  A    between atoms: _289  and  _290
REMARK  115  A    between atoms: _295  and  _297
REMARK  116  A    between atoms: _297  and  _298
REMARK  117  A    between atoms: _297  and  _300
REMARK  118  A    between atoms: _300  and  _301
REMARK  119  A    between atoms: _306  and  _308
REMARK  120  A    between atoms: _308  and  _309
REMARK  121  A    between atoms: _308  and  _311
REMARK  122  A    between atoms: _311  and  _312
REMARK  123  A    between atoms: _315  and  _317
REMARK  124  A    between atoms: _317  and  _318
REMARK  125  A    between atoms: _317  and  _320
REMARK  126  A    between atoms: _323  and  _325
REMARK  127  A    between atoms: _325  and  _326
REMARK  128  A    between atoms: _325  and  _328
REMARK  129  A    between atoms: _328  and  _329
REMARK  130  A    between atoms: _332  and  _334
REMARK  131  A    between atoms: _334  and  _335
REMARK  132  A    between atoms: _334  and  _337
REMARK  133  A    between atoms: _337  and  _338
REMARK  134  A    between atoms: _338  and  _339
REMARK  135  A    between atoms: _342  and  _344
REMARK  136  A    between atoms: _344  and  _345
REMARK  137  A    between atoms: _348  and  _350
REMARK  138  A    between atoms: _350  and  _351
REMARK  139  A    between atoms: _350  and  _353
REMARK  140  A    between atoms: _353  and  _354
REMARK  141  A    between atoms: _357  and  _359
REMARK  142  A    between atoms: _359  and  _360
REMARK  143  A    between atoms: _359  and  _362
REMARK  144  A    between atoms: _362  and  _363
REMARK  145  A    between atoms: _363  and  _364
REMARK  146  A    between atoms: _367  and  _369
REMARK  147  A    between atoms: _369  and  _370
REMARK  148  A    between atoms: _369  and  _372
REMARK  149  A    between atoms: _372  and  _373
REMARK  150  A    between atoms: _378  and  _380
REMARK  151  A    between atoms: _380  and  _381
REMARK  152  A    between atoms: _383  and  _385
REMARK  153  A    between atoms: _385  and  _386
REMARK  154  A    between atoms: _385  and  _388
REMARK  155  A    between atoms: _391  and  _393
REMARK  156  A    between atoms: _393  and  _394
REMARK  157  A    between atoms: _397  and  _399
REMARK  158  A    between atoms: _399  and  _400
REMARK  159  A    between atoms: _399  and  _402
REMARK  160  A    between atoms: _402  and  _403
REMARK  161  A    between atoms: _408  and  _410
REMARK  162  A    between atoms: _410  and  _411
REMARK  163  A    between atoms: _410  and  _413
REMARK  164  A    between atoms: _413  and  _414
REMARK  165  A    between atoms: _414  and  _415
REMARK  166  A    between atoms: _415  and  _416
REMARK  167  A    between atoms: _416  and  _417
REMARK  168  A    between atoms: _421  and  _423
REMARK  169  A    between atoms: _423  and  _424
REMARK  170  A    between atoms: _423  and  _426
REMARK  171  A    between atoms: _426  and  _427
REMARK  172  A    between atoms: _430  and  _432
REMARK  173  A    between atoms: _432  and  _433
REMARK  174  A    between atoms: _432  and  _435
REMARK  175  A    between atoms: _435  and  _436
REMARK  176  A    between atoms: _441  and  _443
REMARK  177  A    between atoms: _443  and  _444
REMARK  178  A    between atoms: _446  and  _448
REMARK  179  A    between atoms: _448  and  _449
REMARK  180  A    between atoms: _448  and  _451
REMARK  181  A    between atoms: _451  and  _452
REMARK  182  A    between atoms: _452  and  _453
REMARK  183  A    between atoms: _453  and  _454
REMARK  184  A    between atoms: _454  and  _455
REMARK  185  A    between atoms: _459  and  _461
REMARK  186  A    between atoms: _461  and  _462
REMARK  187  A    between atoms: _461  and  _464
REMARK  188  A    between atoms: _464  and  _465
REMARK  189  A    between atoms: _465  and  _466
REMARK  190  A    between atoms: _466  and  _467
REMARK  191  A    between atoms: _476  and  _478
REMARK  192  A    between atoms: _478  and  _479
REMARK  193  A    between atoms: _478  and  _481
REMARK  194  A    between atoms: _481  and  _482
REMARK  195  A    between atoms: _487  and  _488
REMARK  196  A    between atoms: _490  and  _492
REMARK  197  A    between atoms: _492  and  _493
REMARK  198  A    between atoms: _492  and  _495
REMARK  199  A    between atoms: _495  and  _496
REMARK  200  A    between atoms: _496  and  _497
REMARK  201  A    between atoms: _497  and  _498
REMARK  202  A    between atoms: _498  and  _499
REMARK  203  A    between atoms: _503  and  _505
REMARK  204  A    between atoms: _505  and  _506
REMARK  205  A    between atoms: _505  and  _508
REMARK  206  A    between atoms: _508  and  _509
REMARK  207  A    between atoms: _511  and  _513
REMARK  208  A    between atoms: _513  and  _514
REMARK  209  A    between atoms: _513  and  _516
REMARK  210  A    between atoms: _516  and  _517
REMARK  211  A    between atoms: _520  and  _522
REMARK  212  A    between atoms: _522  and  _523
REMARK  213  A    between atoms: _522  and  _525
REMARK  214  A    between atoms: _525  and  _526
REMARK  215  A    between atoms: _526  and  _527
REMARK  216  A    between atoms: _530  and  _532
REMARK  217  A    between atoms: _532  and  _533
REMARK  218  A    between atoms: _536  and  _538
REMARK  219  A    between atoms: _538  and  _539
REMARK  220  A    between atoms: _538  and  _541
REMARK  221  A    between atoms: _541  and  _542
REMARK  222  A    between atoms: _544  and  _546
REMARK  223  A    between atoms: _546  and  _547
REMARK  224  A    between atoms: _549  and  _551
REMARK  225  A    between atoms: _551  and  _552
REMARK  226  A    between atoms: _551  and  _554
REMARK  227  A    between atoms: _554  and  _555
REMARK  228  A    between atoms: _558  and  _560
REMARK  229  A    between atoms: _560  and  _561
REMARK  230  A    between atoms: _563  and  _565
REMARK  231  A    between atoms: _565  and  _566
REMARK  232  A    between atoms: _565  and  _568
REMARK  233  A    between atoms: _568  and  _569
REMARK  234  A    between atoms: _574  and  _576
REMARK  235  A    between atoms: _576  and  _577
REMARK  236  A    between atoms: _576  and  _579
REMARK  237  A    between atoms: _579  and  _580
REMARK  238  A    between atoms: _580  and  _581
REMARK  239  A    between atoms: _588  and  _589
REMARK  240  A    between atoms: _589  and  _605
REMARK  241  A    between atoms: _590  and  _592
REMARK  242  A    between atoms: _592  and  _593
REMARK  243  A    between atoms: _593  and  _594
REMARK  244  A    between atoms: _598  and  _600
REMARK  245  A    between atoms: _600  and  _601
REMARK  246  A    between atoms: _600  and  _608
REMARK  247  A    between atoms: _601  and  _602
REMARK  248  A    between atoms: _602  and  _603
REMARK  249  A    between atoms: _603  and  _604
REMARK  250  A    between atoms: _604  and  _605
REMARK  251  A    between atoms: _610  and  _612
REMARK  252  A    between atoms: _612  and  _613
REMARK  253  A    between atoms: _612  and  _615
REMARK  254  A    between atoms: _615  and  _616
REMARK  255  A    between atoms: _619  and  _621
REMARK  256  A    between atoms: _621  and  _622
REMARK  257  A    between atoms: _624  and  _626
REMARK  258  A    between atoms: _626  and  _627
REMARK  259  A    between atoms: _630  and  _632
REMARK  260  A    between atoms: _632  and  _633
REMARK  261  A    between atoms: _632  and  _635
REMARK  262  A    between atoms: _635  and  _636
REMARK  263  A    between atoms: _641  and  _642
REMARK                            x       y       z     vdW  Elec       q    Type
REMARK                         _______ _______ _______ _____ _____    ______ ____
ROOT
ATOM      1  O   HOH     1      44.452  22.792  31.980  0.00  0.00    +0.000 OA
ENDROOT
TORSDOF 0
REMARK  Name = ../refined-set-2016/2qrg/2qrg_pocket.pdb
REMARK  263 active torsions:
REMARK  status: ('A' for Active; 'I' for Inactive)
REMARK    1  A    between atoms: _1  and  _3
REMARK    2  A    between atoms: _3  and  _4
REMARK    3  A    between atoms: _3  and  _6
REMARK    4  A    between atoms: _6  and  _7
REMARK    5  A    between atoms: _12  and  _13
REMARK    6  A    between atoms: _15  and  _17
REMARK    7  A    between atoms: _17  and  _18
REMARK    8  A    between atoms: _17  and  _20
REMARK    9  A    between atoms: _20  and  _21
REMARK   10  A    between atoms: _24  and  _26
REMARK   11  A    between atoms: _26  and  _27
REMARK   12  A    between atoms: _26  and  _29
REMARK   13  A    between atoms: _29  and  _30
REMARK   14  A    between atoms: _30  and  _31
REMARK   15  A    between atoms: _34  and  _36
REMARK   16  A    between atoms: _36  and  _37
REMARK   17  A    between atoms: _36  and  _39
REMARK   18  A    between atoms: _39  and  _40
REMARK   19  A    between atoms: _45  and  _47
REMARK   20  A    between atoms: _47  and  _48
REMARK   21  A    between atoms: _50  and  _52
REMARK   22  A    between atoms: _52  and  _53
REMARK   23  A    between atoms: _55  and  _57
REMARK   24  A    between atoms: _57  and  _58
REMARK   25  A    between atoms: _57  and  _60
REMARK   26  A    between atoms: _60  and  _61
REMARK   27  A    between atoms: _64  and  _66
REMARK   28  A    between atoms: _66  and  _67
REMARK   29  A    between atoms: _69  and  _71
REMARK   30  A    between atoms: _71  and  _72
REMARK   31  A    between atoms: _71  and  _74
REMARK   32  A    between atoms: _74  and  _75
REMARK   33  A    between atoms: _75  and  _76
REMARK   34  A    between atoms: _76  and  _77
REMARK   35  A    between atoms: _86  and  _88
REMARK   36  A    between atoms: _88  and  _89
REMARK   37  A    between atoms: _88  and  _91
REMARK   38  A    between atoms: _91  and  _92
REMARK   39  A    between atoms: _95  and  _97
REMARK   40  A    between atoms: _97  and  _98
REMARK   41  A    between atoms: _101  and  _103
REMARK   42  A    between atoms: _103  and  _104
REMARK   43  A    between atoms: _103  and  _106
REMARK   44  A    between atoms: _106  and  _107
REMARK   45  A    between atoms: _113  and  _115
REMARK   46  A    between atoms: _115  and  _116
REMARK   47  A    between atoms: _115  and  _118
REMARK   48  A    between atoms: _118  and  _119
REMARK   49  A    between atoms: _122  and  _124
REMARK   50  A    between atoms: _124  and  _125
REMARK   51  A    between atoms: _124  and  _127
REMARK   52  A    between atoms: _127  and  _128
REMARK   53  A    between atoms: _133  and  _134
REMARK   54  A    between atoms: _137  and  _138
REMARK   55  A    between atoms: _143  and  _145
REMARK   56  A    between atoms: _145  and  _146
REMARK   57  A    between atoms: _145  and  _148
REMARK   58  A    between atoms: _148  and  _149
REMARK   59  A    between atoms: _154  and  _156
REMARK   60  A    between atoms: _156  and  _157
REMARK   61  A    between atoms: _156  and  _159
REMARK   62  A    between atoms: _159  and  _160
REMARK   63  A    between atoms: _163  and  _165
REMARK   64  A    between atoms: _165  and  _166
REMARK   65  A    between atoms: _165  and  _168
REMARK   66  A    between atoms: _168  and  _169
REMARK   67  A    between atoms: _174  and  _176
REMARK   68  A    between atoms: _176  and  _177
REMARK   69  A    between atoms: _176  and  _179
REMARK   70  A    between atoms: _179  and  _180
REMARK   71  A    between atoms: _186  and  _188
REMARK   72  A    between atoms: _188  and  _189
REMARK   73  A    between atoms: _188  and  _191
REMARK   74  A    between atoms: _191  and  _192
REMARK   75  A    between atoms: _198  and  _200
REMARK   76  A    between atoms: _200  and  _201
REMARK   77  A    between atoms: _200  and  _203
REMARK   78  A    between atoms: _203  and  _204
REMARK   79  A    between atoms: _204  and  _205
REMARK   80  A    between atoms: _208  and  _210
REMARK   81  A    between atoms: _210  and  _211
REMARK   82  A    between atoms: _210  and  _213
REMARK   83  A    between atoms: _213  and  _214
REMARK   84  A    between atoms: _214  and  _215
REMARK   85  A    between atoms: _215  and  _216
REMARK   86  A    between atoms: _225  and  _227
REMARK   87  A    between atoms: _227  and  _228
REMARK   88  A    between atoms: _227  and  _230
REMARK   89  A    between atoms: _230  and  _231
REMARK   90  A    between atoms: _231  and  _232
REMARK   91  A    between atoms: _235  and  _237
REMARK   92  A    between atoms: _237  and  _238
REMARK   93  A    between atoms: _237  and  _240
REMARK   94  A    between atoms: _240  and  _241
REMARK   95  A    between atoms: _246  and  _248
REMARK   96  A    between atoms: _248  and  _249
REMARK   97  A    between atoms: _248  and  _251
REMARK   98  A    between atoms: _251  and  _252
REMARK   99  A    between atoms: _255  and  _257
REMARK  100  A    between atoms: _257  and  _258
REMARK  101  A    between atoms: _257  and  _260
REMARK  102  A    between atoms: _260  and  _261
REMARK  103  A    between atoms: _264  and  _266
REMARK  104  A    between atoms: _266  and  _267
REMARK  105  A    between atoms: _266  and  _269
REMARK  106  A    between atoms: _269  and  _270
REMARK  107  A    between atoms: _275  and  _277
REMARK  108  A    between atoms: _277  and  _278
REMARK  109  A    between atoms: _277  and  _280
REMARK  110  A    between atoms: _280  and  _281
REMARK  111  A    between atoms: _284  and  _286
REMARK  112  A    between atoms: _286  and  _287
REMARK  113  A    between atoms: _286  and  _289
REMARK  114  A    between atoms: _289  and  _290
REMARK  115  A    between atoms: _295  and  _297
REMARK  116  A    between atoms: _297  and  _298
REMARK  117  A    between atoms: _297  and  _300
REMARK  118  A    between atoms: _300  and  _301
REMARK  119  A    between atoms: _306  and  _308
REMARK  120  A    between atoms: _308  and  _309
REMARK  121  A    between atoms: _308  and  _311
REMARK  122  A    between atoms: _311  and  _312
REMARK  123  A    between atoms: _315  and  _317
REMARK  124  A    between atoms: _317  and  _318
REMARK  125  A    between atoms: _317  and  _320
REMARK  126  A    between atoms: _323  and  _325
REMARK  127  A    between atoms: _325  and  _326
REMARK  128  A    between atoms: _325  and  _328
REMARK  129  A    between atoms: _328  and  _329
REMARK  130  A    between atoms: _332  and  _334
REMARK  131  A    between atoms: _334  and  _335
REMARK  132  A    between atoms: _334  and  _337
REMARK  133  A    between atoms: _337  and  _338
REMARK  134  A    between atoms: _338  and  _339
REMARK  135  A    between atoms: _342  and  _344
REMARK  136  A    between atoms: _344  and  _345
REMARK  137  A    between atoms: _348  and  _350
REMARK  138  A    between atoms: _350  and  _351
REMARK  139  A    between atoms: _350  and  _353
REMARK  140  A    between atoms: _353  and  _354
REMARK  141  A    between atoms: _357  and  _359
REMARK  142  A    between atoms: _359  and  _360
REMARK  143  A    between atoms: _359  and  _362
REMARK  144  A    between atoms: _362  and  _363
REMARK  145  A    between atoms: _363  and  _364
REMARK  146  A    between atoms: _367  and  _369
REMARK  147  A    between atoms: _369  and  _370
REMARK  148  A    between atoms: _369  and  _372
REMARK  149  A    between atoms: _372  and  _373
REMARK  150  A    between atoms: _378  and  _380
REMARK  151  A    between atoms: _380  and  _381
REMARK  152  A    between atoms: _383  and  _385
REMARK  153  A    between atoms: _385  and  _386
REMARK  154  A    between atoms: _385  and  _388
REMARK  155  A    between atoms: _391  and  _393
REMARK  156  A    between atoms: _393  and  _394
REMARK  157  A    between atoms: _397  and  _399
REMARK  158  A    between atoms: _399  and  _400
REMARK  159  A    between atoms: _399  and  _402
REMARK  160  A    between atoms: _402  and  _403
REMARK  161  A    between atoms: _408  and  _410
REMARK  162  A    between atoms: _410  and  _411
REMARK  163  A    between atoms: _410  and  _413
REMARK  164  A    between atoms: _413  and  _414
REMARK  165  A    between atoms: _414  and  _415
REMARK  166  A    between atoms: _415  and  _416
REMARK  167  A    between atoms: _416  and  _417
REMARK  168  A    between atoms: _421  and  _423
REMARK  169  A    between atoms: _423  and  _424
REMARK  170  A    between atoms: _423  and  _426
REMARK  171  A    between atoms: _426  and  _427
REMARK  172  A    between atoms: _430  and  _432
REMARK  173  A    between atoms: _432  and  _433
REMARK  174  A    between atoms: _432  and  _435
REMARK  175  A    between atoms: _435  and  _436
REMARK  176  A    between atoms: _441  and  _443
REMARK  177  A    between atoms: _443  and  _444
REMARK  178  A    between atoms: _446  and  _448
REMARK  179  A    between atoms: _448  and  _449
REMARK  180  A    between atoms: _448  and  _451
REMARK  181  A    between atoms: _451  and  _452
REMARK  182  A    between atoms: _452  and  _453
REMARK  183  A    between atoms: _453  and  _454
REMARK  184  A    between atoms: _454  and  _455
REMARK  185  A    between atoms: _459  and  _461
REMARK  186  A    between atoms: _461  and  _462
REMARK  187  A    between atoms: _461  and  _464
REMARK  188  A    between atoms: _464  and  _465
REMARK  189  A    between atoms: _465  and  _466
REMARK  190  A    between atoms: _466  and  _467
REMARK  191  A    between atoms: _476  and  _478
REMARK  192  A    between atoms: _478  and  _479
REMARK  193  A    between atoms: _478  and  _481
REMARK  194  A    between atoms: _481  and  _482
REMARK  195  A    between atoms: _487  and  _488
REMARK  196  A    between atoms: _490  and  _492
REMARK  197  A    between atoms: _492  and  _493
REMARK  198  A    between atoms: _492  and  _495
REMARK  199  A    between atoms: _495  and  _496
REMARK  200  A    between atoms: _496  and  _497
REMARK  201  A    between atoms: _497  and  _498
REMARK  202  A    between atoms: _498  and  _499
REMARK  203  A    between atoms: _503  and  _505
REMARK  204  A    between atoms: _505  and  _506
REMARK  205  A    between atoms: _505  and  _508
REMARK  206  A    between atoms: _508  and  _509
REMARK  207  A    between atoms: _511  and  _513
REMARK  208  A    between atoms: _513  and  _514
REMARK  209  A    between atoms: _513  and  _516
REMARK  210  A    between atoms: _516  and  _517
REMARK  211  A    between atoms: _520  and  _522
REMARK  212  A    between atoms: _522  and  _523
REMARK  213  A    between atoms: _522  and  _525
REMARK  214  A    between atoms: _525  and  _526
REMARK  215  A    between atoms: _526  and  _527
REMARK  216  A    between atoms: _530  and  _532
REMARK  217  A    between atoms: _532  and  _533
REMARK  218  A    between atoms: _536  and  _538
REMARK  219  A    between atoms: _538  and  _539
REMARK  220  A    between atoms: _538  and  _541
REMARK  221  A    between atoms: _541  and  _542
REMARK  222  A    between atoms: _544  and  _546
REMARK  223  A    between atoms: _546  and  _547
REMARK  224  A    between atoms: _549  and  _551
REMARK  225  A    between atoms: _551  and  _552
REMARK  226  A    between atoms: _551  and  _554
REMARK  227  A    between atoms: _554  and  _555
REMARK  228  A    between atoms: _558  and  _560
REMARK  229  A    between atoms: _560  and  _561
REMARK  230  A    between atoms: _563  and  _565
REMARK  231  A    between atoms: _565  and  _566
REMARK  232  A    between atoms: _565  and  _568
REMARK  233  A    between atoms: _568  and  _569
REMARK  234  A    between atoms: _574  and  _576
REMARK  235  A    between atoms: _576  and  _577
REMARK  236  A    between atoms: _576  and  _579
REMARK  237  A    between atoms: _579  and  _580
REMARK  238  A    between atoms: _580  and  _581
REMARK  239  A    between atoms: _588  and  _589
REMARK  240  A    between atoms: _589  and  _605
REMARK  241  A    between atoms: _590  and  _592
REMARK  242  A    between atoms: _592  and  _593
REMARK  243  A    between atoms: _593  and  _594
REMARK  244  A    between atoms: _598  and  _600
REMARK  245  A    between atoms: _600  and  _601
REMARK  246  A    between atoms: _600  and  _608
REMARK  247  A    between atoms: _601  and  _602
REMARK  248  A    between atoms: _602  and  _603
REMARK  249  A    between atoms: _603  and  _604
REMARK  250  A    between atoms: _604  and  _605
REMARK  251  A    between atoms: _610  and  _612
REMARK  252  A    between atoms: _612  and  _613
REMARK  253  A    between atoms: _612  and  _615
REMARK  254  A    between atoms: _615  and  _616
REMARK  255  A    between atoms: _619  and  _621
REMARK  256  A    between atoms: _621  and  _622
REMARK  257  A    between atoms: _624  and  _626
REMARK  258  A    between atoms: _626  and  _627
REMARK  259  A    between atoms: _630  and  _632
REMARK  260  A    between atoms: _632  and  _633
REMARK  261  A    between atoms: _632  and  _635
REMARK  262  A    between atoms: _635  and  _636
REMARK  263  A    between atoms: _641  and  _642
REMARK                            x       y       z     vdW  Elec       q    Type
REMARK                         _______ _______ _______ _____ _____    ______ ____
ROOT
ATOM      1  O   HOH     1      29.809  25.981  28.958  0.00  0.00    +0.000 OA
ENDROOT
TORSDOF 0
REMARK  Name = ../refined-set-2016/2qrg/2qrg_pocket.pdb
REMARK  263 active torsions:
REMARK  status: ('A' for Active; 'I' for Inactive)
REMARK    1  A    between atoms: _1  and  _3
REMARK    2  A    between atoms: _3  and  _4
REMARK    3  A    between atoms: _3  and  _6
REMARK    4  A    between atoms: _6  and  _7
REMARK    5  A    between atoms: _12  and  _13
REMARK    6  A    between atoms: _15  and  _17
REMARK    7  A    between atoms: _17  and  _18
REMARK    8  A    between atoms: _17  and  _20
REMARK    9  A    between atoms: _20  and  _21
REMARK   10  A    between atoms: _24  and  _26
REMARK   11  A    between atoms: _26  and  _27
REMARK   12  A    between atoms: _26  and  _29
REMARK   13  A    between atoms: _29  and  _30
REMARK   14  A    between atoms: _30  and  _31
REMARK   15  A    between atoms: _34  and  _36
REMARK   16  A    between atoms: _36  and  _37
REMARK   17  A    between atoms: _36  and  _39
REMARK   18  A    between atoms: _39  and  _40
REMARK   19  A    between atoms: _45  and  _47
REMARK   20  A    between atoms: _47  and  _48
REMARK   21  A    between atoms: _50  and  _52
REMARK   22  A    between atoms: _52  and  _53
REMARK   23  A    between atoms: _55  and  _57
REMARK   24  A    between atoms: _57  and  _58
REMARK   25  A    between atoms: _57  and  _60
REMARK   26  A    between atoms: _60  and  _61
REMARK   27  A    between atoms: _64  and  _66
REMARK   28  A    between atoms: _66  and  _67
REMARK   29  A    between atoms: _69  and  _71
REMARK   30  A    between atoms: _71  and  _72
REMARK   31  A    between atoms: _71  and  _74
REMARK   32  A    between atoms: _74  and  _75
REMARK   33  A    between atoms: _75  and  _76
REMARK   34  A    between atoms: _76  and  _77
REMARK   35  A    between atoms: _86  and  _88
REMARK   36  A    between atoms: _88  and  _89
REMARK   37  A    between atoms: _88  and  _91
REMARK   38  A    between atoms: _91  and  _92
REMARK   39  A    between atoms: _95  and  _97
REMARK   40  A    between atoms: _97  and  _98
REMARK   41  A    between atoms: _101  and  _103
REMARK   42  A    between atoms: _103  and  _104
REMARK   43  A    between atoms: _103  and  _106
REMARK   44  A    between atoms: _106  and  _107
REMARK   45  A    between atoms: _113  and  _115
REMARK   46  A    between atoms: _115  and  _116
REMARK   47  A    between atoms: _115  and  _118
REMARK   48  A    between atoms: _118  and  _119
REMARK   49  A    between atoms: _122  and  _124
REMARK   50  A    between atoms: _124  and  _125
REMARK   51  A    between atoms: _124  and  _127
REMARK   52  A    between atoms: _127  and  _128
REMARK   53  A    between atoms: _133  and  _134
REMARK   54  A    between atoms: _137  and  _138
REMARK   55  A    between atoms: _143  and  _145
REMARK   56  A    between atoms: _145  and  _146
REMARK   57  A    between atoms: _145  and  _148
REMARK   58  A    between atoms: _148  and  _149
REMARK   59  A    between atoms: _154  and  _156
REMARK   60  A    between atoms: _156  and  _157
REMARK   61  A    between atoms: _156  and  _159
REMARK   62  A    between atoms: _159  and  _160
REMARK   63  A    between atoms: _163  and  _165
REMARK   64  A    between atoms: _165  and  _166
REMARK   65  A    between atoms: _165  and  _168
REMARK   66  A    between atoms: _168  and  _169
REMARK   67  A    between atoms: _174  and  _176
REMARK   68  A    between atoms: _176  and  _177
REMARK   69  A    between atoms: _176  and  _179
REMARK   70  A    between atoms: _179  and  _180
REMARK   71  A    between atoms: _186  and  _188
REMARK   72  A    between atoms: _188  and  _189
REMARK   73  A    between atoms: _188  and  _191
REMARK   74  A    between atoms: _191  and  _192
REMARK   75  A    between atoms: _198  and  _200
REMARK   76  A    between atoms: _200  and  _201
REMARK   77  A    between atoms: _200  and  _203
REMARK   78  A    between atoms: _203  and  _204
REMARK   79  A    between atoms: _204  and  _205
REMARK   80  A    between atoms: _208  and  _210
REMARK   81  A    between atoms: _210  and  _211
REMARK   82  A    between atoms: _210  and  _213
REMARK   83  A    between atoms: _213  and  _214
REMARK   84  A    between atoms: _214  and  _215
REMARK   85  A    between atoms: _215  and  _216
REMARK   86  A    between atoms: _225  and  _227
REMARK   87  A    between atoms: _227  and  _228
REMARK   88  A    between atoms: _227  and  _230
REMARK   89  A    between atoms: _230  and  _231
REMARK   90  A    between atoms: _231  and  _232
REMARK   91  A    between atoms: _235  and  _237
REMARK   92  A    between atoms: _237  and  _238
REMARK   93  A    between atoms: _237  and  _240
REMARK   94  A    between atoms: _240  and  _241
REMARK   95  A    between atoms: _246  and  _248
REMARK   96  A    between atoms: _248  and  _249
REMARK   97  A    between atoms: _248  and  _251
REMARK   98  A    between atoms: _251  and  _252
REMARK   99  A    between atoms: _255  and  _257
REMARK  100  A    between atoms: _257  and  _258
REMARK  101  A    between atoms: _257  and  _260
REMARK  102  A    between atoms: _260  and  _261
REMARK  103  A    between atoms: _264  and  _266
REMARK  104  A    between atoms: _266  and  _267
REMARK  105  A    between atoms: _266  and  _269
REMARK  106  A    between atoms: _269  and  _270
REMARK  107  A    between atoms: _275  and  _277
REMARK  108  A    between atoms: _277  and  _278
REMARK  109  A    between atoms: _277  and  _280
REMARK  110  A    between atoms: _280  and  _281
REMARK  111  A    between atoms: _284  and  _286
REMARK  112  A    between atoms: _286  and  _287
REMARK  113  A    between atoms: _286  and  _289
REMARK  114  A    between atoms: _289  and  _290
REMARK  115  A    between atoms: _295  and  _297
REMARK  116  A    between atoms: _297  and  _298
REMARK  117  A    between atoms: _297  and  _300
REMARK  118  A    between atoms: _300  and  _301
REMARK  119  A    between atoms: _306  and  _308
REMARK  120  A    between atoms: _308  and  _309
REMARK  121  A    between atoms: _308  and  _311
REMARK  122  A    between atoms: _311  and  _312
REMARK  123  A    between atoms: _315  and  _317
REMARK  124  A    between atoms: _317  and  _318
REMARK  125  A    between atoms: _317  and  _320
REMARK  126  A    between atoms: _323  and  _325
REMARK  127  A    between atoms: _325  and  _326
REMARK  128  A    between atoms: _325  and  _328
REMARK  129  A    between atoms: _328  and  _329
REMARK  130  A    between atoms: _332  and  _334
REMARK  131  A    between atoms: _334  and  _335
REMARK  132  A    between atoms: _334  and  _337
REMARK  133  A    between atoms: _337  and  _338
REMARK  134  A    between atoms: _338  and  _339
REMARK  135  A    between atoms: _342  and  _344
REMARK  136  A    between atoms: _344  and  _345
REMARK  137  A    between atoms: _348  and  _350
REMARK  138  A    between atoms: _350  and  _351
REMARK  139  A    between atoms: _350  and  _353
REMARK  140  A    between atoms: _353  and  _354
REMARK  141  A    between atoms: _357  and  _359
REMARK  142  A    between atoms: _359  and  _360
REMARK  143  A    between atoms: _359  and  _362
REMARK  144  A    between atoms: _362  and  _363
REMARK  145  A    between atoms: _363  and  _364
REMARK  146  A    between atoms: _367  and  _369
REMARK  147  A    between atoms: _369  and  _370
REMARK  148  A    between atoms: _369  and  _372
REMARK  149  A    between atoms: _372  and  _373
REMARK  150  A    between atoms: _378  and  _380
REMARK  151  A    between atoms: _380  and  _381
REMARK  152  A    between atoms: _383  and  _385
REMARK  153  A    between atoms: _385  and  _386
REMARK  154  A    between atoms: _385  and  _388
REMARK  155  A    between atoms: _391  and  _393
REMARK  156  A    between atoms: _393  and  _394
REMARK  157  A    between atoms: _397  and  _399
REMARK  158  A    between atoms: _399  and  _400
REMARK  159  A    between atoms: _399  and  _402
REMARK  160  A    between atoms: _402  and  _403
REMARK  161  A    between atoms: _408  and  _410
REMARK  162  A    between atoms: _410  and  _411
REMARK  163  A    between atoms: _410  and  _413
REMARK  164  A    between atoms: _413  and  _414
REMARK  165  A    between atoms: _414  and  _415
REMARK  166  A    between atoms: _415  and  _416
REMARK  167  A    between atoms: _416  and  _417
REMARK  168  A    between atoms: _421  and  _423
REMARK  169  A    between atoms: _423  and  _424
REMARK  170  A    between atoms: _423  and  _426
REMARK  171  A    between atoms: _426  and  _427
REMARK  172  A    between atoms: _430  and  _432
REMARK  173  A    between atoms: _432  and  _433
REMARK  174  A    between atoms: _432  and  _435
REMARK  175  A    between atoms: _435  and  _436
REMARK  176  A    between atoms: _441  and  _443
REMARK  177  A    between atoms: _443  and  _444
REMARK  178  A    between atoms: _446  and  _448
REMARK  179  A    between atoms: _448  and  _449
REMARK  180  A    between atoms: _448  and  _451
REMARK  181  A    between atoms: _451  and  _452
REMARK  182  A    between atoms: _452  and  _453
REMARK  183  A    between atoms: _453  and  _454
REMARK  184  A    between atoms: _454  and  _455
REMARK  185  A    between atoms: _459  and  _461
REMARK  186  A    between atoms: _461  and  _462
REMARK  187  A    between atoms: _461  and  _464
REMARK  188  A    between atoms: _464  and  _465
REMARK  189  A    between atoms: _465  and  _466
REMARK  190  A    between atoms: _466  and  _467
REMARK  191  A    between atoms: _476  and  _478
REMARK  192  A    between atoms: _478  and  _479
REMARK  193  A    between atoms: _478  and  _481
REMARK  194  A    between atoms: _481  and  _482
REMARK  195  A    between atoms: _487  and  _488
REMARK  196  A    between atoms: _490  and  _492
REMARK  197  A    between atoms: _492  and  _493
REMARK  198  A    between atoms: _492  and  _495
REMARK  199  A    between atoms: _495  and  _496
REMARK  200  A    between atoms: _496  and  _497
REMARK  201  A    between atoms: _497  and  _498
REMARK  202  A    between atoms: _498  and  _499
REMARK  203  A    between atoms: _503  and  _505
REMARK  204  A    between atoms: _505  and  _506
REMARK  205  A    between atoms: _505  and  _508
REMARK  206  A    between atoms: _508  and  _509
REMARK  207  A    between atoms: _511  and  _513
REMARK  208  A    between atoms: _513  and  _514
REMARK  209  A    between atoms: _513  and  _516
REMARK  210  A    between atoms: _516  and  _517
REMARK  211  A    between atoms: _520  and  _522
REMARK  212  A    between atoms: _522  and  _523
REMARK  213  A    between atoms: _522  and  _525
REMARK  214  A    between atoms: _525  and  _526
REMARK  215  A    between atoms: _526  and  _527
REMARK  216  A    between atoms: _530  and  _532
REMARK  217  A    between atoms: _532  and  _533
REMARK  218  A    between atoms: _536  and  _538
REMARK  219  A    between atoms: _538  and  _539
REMARK  220  A    between atoms: _538  and  _541
REMARK  221  A    between atoms: _541  and  _542
REMARK  222  A    between atoms: _544  and  _546
REMARK  223  A    between atoms: _546  and  _547
REMARK  224  A    between atoms: _549  and  _551
REMARK  225  A    between atoms: _551  and  _552
REMARK  226  A    between atoms: _551  and  _554
REMARK  227  A    between atoms: _554  and  _555
REMARK  228  A    between atoms: _558  and  _560
REMARK  229  A    between atoms: _560  and  _561
REMARK  230  A    between atoms: _563  and  _565
REMARK  231  A    between atoms: _565  and  _566
REMARK  232  A    between atoms: _565  and  _568
REMARK  233  A    between atoms: _568  and  _569
REMARK  234  A    between atoms: _574  and  _576
REMARK  235  A    between atoms: _576  and  _577
REMARK  236  A    between atoms: _576  and  _579
REMARK  237  A    between atoms: _579  and  _580
REMARK  238  A    between atoms: _580  and  _581
REMARK  239  A    between atoms: _588  and  _589
REMARK  240  A    between atoms: _589  and  _605
REMARK  241  A    between atoms: _590  and  _592
REMARK  242  A    between atoms: _592  and  _593
REMARK  243  A    between atoms: _593  and  _594
REMARK  244  A    between atoms: _598  and  _600
REMARK  245  A    between atoms: _600  and  _601
REMARK  246  A    between atoms: _600  and  _608
REMARK  247  A    between atoms: _601  and  _602
REMARK  248  A    between atoms: _602  and  _603
REMARK  249  A    between atoms: _603  and  _604
REMARK  250  A    between atoms: _604  and  _605
REMARK  251  A    between atoms: _610  and  _612
REMARK  252  A    between atoms: _612  and  _613
REMARK  253  A    between atoms: _612  and  _615
REMARK  254  A    between atoms: _615  and  _616
REMARK  255  A    between atoms: _619  and  _621
REMARK  256  A    between atoms: _621  and  _622
REMARK  257  A    between atoms: _624  and  _626
REMARK  258  A    between atoms: _626  and  _627
REMARK  259  A    between atoms: _630  and  _632
REMARK  260  A    between atoms: _632  and  _633
REMARK  261  A    between atoms: _632  and  _635
REMARK  262  A    between atoms: _635  and  _636
REMARK  263  A    between atoms: _641  and  _642
REMARK                            x       y       z     vdW  Elec       q    Type
REMARK                         _______ _______ _______ _____ _____    ______ ____
ROOT
ATOM      1  O   HOH     1      28.029  27.520  27.614  0.00  0.00    +0.000 OA
ENDROOT
TORSDOF 0
REMARK  Name = ../refined-set-2016/2qrg/2qrg_pocket.pdb
REMARK  263 active torsions:
REMARK  status: ('A' for Active; 'I' for Inactive)
REMARK    1  A    between atoms: _1  and  _3
REMARK    2  A    between atoms: _3  and  _4
REMARK    3  A    between atoms: _3  and  _6
REMARK    4  A    between atoms: _6  and  _7
REMARK    5  A    between atoms: _12  and  _13
REMARK    6  A    between atoms: _15  and  _17
REMARK    7  A    between atoms: _17  and  _18
REMARK    8  A    between atoms: _17  and  _20
REMARK    9  A    between atoms: _20  and  _21
REMARK   10  A    between atoms: _24  and  _26
REMARK   11  A    between atoms: _26  and  _27
REMARK   12  A    between atoms: _26  and  _29
REMARK   13  A    between atoms: _29  and  _30
REMARK   14  A    between atoms: _30  and  _31
REMARK   15  A    between atoms: _34  and  _36
REMARK   16  A    between atoms: _36  and  _37
REMARK   17  A    between atoms: _36  and  _39
REMARK   18  A    between atoms: _39  and  _40
REMARK   19  A    between atoms: _45  and  _47
REMARK   20  A    between atoms: _47  and  _48
REMARK   21  A    between atoms: _50  and  _52
REMARK   22  A    between atoms: _52  and  _53
REMARK   23  A    between atoms: _55  and  _57
REMARK   24  A    between atoms: _57  and  _58
REMARK   25  A    between atoms: _57  and  _60
REMARK   26  A    between atoms: _60  and  _61
REMARK   27  A    between atoms: _64  and  _66
REMARK   28  A    between atoms: _66  and  _67
REMARK   29  A    between atoms: _69  and  _71
REMARK   30  A    between atoms: _71  and  _72
REMARK   31  A    between atoms: _71  and  _74
REMARK   32  A    between atoms: _74  and  _75
REMARK   33  A    between atoms: _75  and  _76
REMARK   34  A    between atoms: _76  and  _77
REMARK   35  A    between atoms: _86  and  _88
REMARK   36  A    between atoms: _88  and  _89
REMARK   37  A    between atoms: _88  and  _91
REMARK   38  A    between atoms: _91  and  _92
REMARK   39  A    between atoms: _95  and  _97
REMARK   40  A    between atoms: _97  and  _98
REMARK   41  A    between atoms: _101  and  _103
REMARK   42  A    between atoms: _103  and  _104
REMARK   43  A    between atoms: _103  and  _106
REMARK   44  A    between atoms: _106  and  _107
REMARK   45  A    between atoms: _113  and  _115
REMARK   46  A    between atoms: _115  and  _116
REMARK   47  A    between atoms: _115  and  _118
REMARK   48  A    between atoms: _118  and  _119
REMARK   49  A    between atoms: _122  and  _124
REMARK   50  A    between atoms: _124  and  _125
REMARK   51  A    between atoms: _124  and  _127
REMARK   52  A    between atoms: _127  and  _128
REMARK   53  A    between atoms: _133  and  _134
REMARK   54  A    between atoms: _137  and  _138
REMARK   55  A    between atoms: _143  and  _145
REMARK   56  A    between atoms: _145  and  _146
REMARK   57  A    between atoms: _145  and  _148
REMARK   58  A    between atoms: _148  and  _149
REMARK   59  A    between atoms: _154  and  _156
REMARK   60  A    between atoms: _156  and  _157
REMARK   61  A    between atoms: _156  and  _159
REMARK   62  A    between atoms: _159  and  _160
REMARK   63  A    between atoms: _163  and  _165
REMARK   64  A    between atoms: _165  and  _166
REMARK   65  A    between atoms: _165  and  _168
REMARK   66  A    between atoms: _168  and  _169
REMARK   67  A    between atoms: _174  and  _176
REMARK   68  A    between atoms: _176  and  _177
REMARK   69  A    between atoms: _176  and  _179
REMARK   70  A    between atoms: _179  and  _180
REMARK   71  A    between atoms: _186  and  _188
REMARK   72  A    between atoms: _188  and  _189
REMARK   73  A    between atoms: _188  and  _191
REMARK   74  A    between atoms: _191  and  _192
REMARK   75  A    between atoms: _198  and  _200
REMARK   76  A    between atoms: _200  and  _201
REMARK   77  A    between atoms: _200  and  _203
REMARK   78  A    between atoms: _203  and  _204
REMARK   79  A    between atoms: _204  and  _205
REMARK   80  A    between atoms: _208  and  _210
REMARK   81  A    between atoms: _210  and  _211
REMARK   82  A    between atoms: _210  and  _213
REMARK   83  A    between atoms: _213  and  _214
REMARK   84  A    between atoms: _214  and  _215
REMARK   85  A    between atoms: _215  and  _216
REMARK   86  A    between atoms: _225  and  _227
REMARK   87  A    between atoms: _227  and  _228
REMARK   88  A    between atoms: _227  and  _230
REMARK   89  A    between atoms: _230  and  _231
REMARK   90  A    between atoms: _231  and  _232
REMARK   91  A    between atoms: _235  and  _237
REMARK   92  A    between atoms: _237  and  _238
REMARK   93  A    between atoms: _237  and  _240
REMARK   94  A    between atoms: _240  and  _241
REMARK   95  A    between atoms: _246  and  _248
REMARK   96  A    between atoms: _248  and  _249
REMARK   97  A    between atoms: _248  and  _251
REMARK   98  A    between atoms: _251  and  _252
REMARK   99  A    between atoms: _255  and  _257
REMARK  100  A    between atoms: _257  and  _258
REMARK  101  A    between atoms: _257  and  _260
REMARK  102  A    between atoms: _260  and  _261
REMARK  103  A    between atoms: _264  and  _266
REMARK  104  A    between atoms: _266  and  _267
REMARK  105  A    between atoms: _266  and  _269
REMARK  106  A    between atoms: _269  and  _270
REMARK  107  A    between atoms: _275  and  _277
REMARK  108  A    between atoms: _277  and  _278
REMARK  109  A    between atoms: _277  and  _280
REMARK  110  A    between atoms: _280  and  _281
REMARK  111  A    between atoms: _284  and  _286
REMARK  112  A    between atoms: _286  and  _287
REMARK  113  A    between atoms: _286  and  _289
REMARK  114  A    between atoms: _289  and  _290
REMARK  115  A    between atoms: _295  and  _297
REMARK  116  A    between atoms: _297  and  _298
REMARK  117  A    between atoms: _297  and  _300
REMARK  118  A    between atoms: _300  and  _301
REMARK  119  A    between atoms: _306  and  _308
REMARK  120  A    between atoms: _308  and  _309
REMARK  121  A    between atoms: _308  and  _311
REMARK  122  A    between atoms: _311  and  _312
REMARK  123  A    between atoms: _315  and  _317
REMARK  124  A    between atoms: _317  and  _318
REMARK  125  A    between atoms: _317  and  _320
REMARK  126  A    between atoms: _323  and  _325
REMARK  127  A    between atoms: _325  and  _326
REMARK  128  A    between atoms: _325  and  _328
REMARK  129  A    between atoms: _328  and  _329
REMARK  130  A    between atoms: _332  and  _334
REMARK  131  A    between atoms: _334  and  _335
REMARK  132  A    between atoms: _334  and  _337
REMARK  133  A    between atoms: _337  and  _338
REMARK  134  A    between atoms: _338  and  _339
REMARK  135  A    between atoms: _342  and  _344
REMARK  136  A    between atoms: _344  and  _345
REMARK  137  A    between atoms: _348  and  _350
REMARK  138  A    between atoms: _350  and  _351
REMARK  139  A    between atoms: _350  and  _353
REMARK  140  A    between atoms: _353  and  _354
REMARK  141  A    between atoms: _357  and  _359
REMARK  142  A    between atoms: _359  and  _360
REMARK  143  A    between atoms: _359  and  _362
REMARK  144  A    between atoms: _362  and  _363
REMARK  145  A    between atoms: _363  and  _364
REMARK  146  A    between atoms: _367  and  _369
REMARK  147  A    between atoms: _369  and  _370
REMARK  148  A    between atoms: _369  and  _372
REMARK  149  A    between atoms: _372  and  _373
REMARK  150  A    between atoms: _378  and  _380
REMARK  151  A    between atoms: _380  and  _381
REMARK  152  A    between atoms: _383  and  _385
REMARK  153  A    between atoms: _385  and  _386
REMARK  154  A    between atoms: _385  and  _388
REMARK  155  A    between atoms: _391  and  _393
REMARK  156  A    between atoms: _393  and  _394
REMARK  157  A    between atoms: _397  and  _399
REMARK  158  A    between atoms: _399  and  _400
REMARK  159  A    between atoms: _399  and  _402
REMARK  160  A    between atoms: _402  and  _403
REMARK  161  A    between atoms: _408  and  _410
REMARK  162  A    between atoms: _410  and  _411
REMARK  163  A    between atoms: _410  and  _413
REMARK  164  A    between atoms: _413  and  _414
REMARK  165  A    between atoms: _414  and  _415
REMARK  166  A    between atoms: _415  and  _416
REMARK  167  A    between atoms: _416  and  _417
REMARK  168  A    between atoms: _421  and  _423
REMARK  169  A    between atoms: _423  and  _424
REMARK  170  A    between atoms: _423  and  _426
REMARK  171  A    between atoms: _426  and  _427
REMARK  172  A    between atoms: _430  and  _432
REMARK  173  A    between atoms: _432  and  _433
REMARK  174  A    between atoms: _432  and  _435
REMARK  175  A    between atoms: _435  and  _436
REMARK  176  A    between atoms: _441  and  _443
REMARK  177  A    between atoms: _443  and  _444
REMARK  178  A    between atoms: _446  and  _448
REMARK  179  A    between atoms: _448  and  _449
REMARK  180  A    between atoms: _448  and  _451
REMARK  181  A    between atoms: _451  and  _452
REMARK  182  A    between atoms: _452  and  _453
REMARK  183  A    between atoms: _453  and  _454
REMARK  184  A    between atoms: _454  and  _455
REMARK  185  A    between atoms: _459  and  _461
REMARK  186  A    between atoms: _461  and  _462
REMARK  187  A    between atoms: _461  and  _464
REMARK  188  A    between atoms: _464  and  _465
REMARK  189  A    between atoms: _465  and  _466
REMARK  190  A    between atoms: _466  and  _467
REMARK  191  A    between atoms: _476  and  _478
REMARK  192  A    between atoms: _478  and  _479
REMARK  193  A    between atoms: _478  and  _481
REMARK  194  A    between atoms: _481  and  _482
REMARK  195  A    between atoms: _487  and  _488
REMARK  196  A    between atoms: _490  and  _492
REMARK  197  A    between atoms: _492  and  _493
REMARK  198  A    between atoms: _492  and  _495
REMARK  199  A    between atoms: _495  and  _496
REMARK  200  A    between atoms: _496  and  _497
REMARK  201  A    between atoms: _497  and  _498
REMARK  202  A    between atoms: _498  and  _499
REMARK  203  A    between atoms: _503  and  _505
REMARK  204  A    between atoms: _505  and  _506
REMARK  205  A    between atoms: _505  and  _508
REMARK  206  A    between atoms: _508  and  _509
REMARK  207  A    between atoms: _511  and  _513
REMARK  208  A    between atoms: _513  and  _514
REMARK  209  A    between atoms: _513  and  _516
REMARK  210  A    between atoms: _516  and  _517
REMARK  211  A    between atoms: _520  and  _522
REMARK  212  A    between atoms: _522  and  _523
REMARK  213  A    between atoms: _522  and  _525
REMARK  214  A    between atoms: _525  and  _526
REMARK  215  A    between atoms: _526  and  _527
REMARK  216  A    between atoms: _530  and  _532
REMARK  217  A    between atoms: _532  and  _533
REMARK  218  A    between atoms: _536  and  _538
REMARK  219  A    between atoms: _538  and  _539
REMARK  220  A    between atoms: _538  and  _541
REMARK  221  A    between atoms: _541  and  _542
REMARK  222  A    between atoms: _544  and  _546
REMARK  223  A    between atoms: _546  and  _547
REMARK  224  A    between atoms: _549  and  _551
REMARK  225  A    between atoms: _551  and  _552
REMARK  226  A    between atoms: _551  and  _554
REMARK  227  A    between atoms: _554  and  _555
REMARK  228  A    between atoms: _558  and  _560
REMARK  229  A    between atoms: _560  and  _561
REMARK  230  A    between atoms: _563  and  _565
REMARK  231  A    between atoms: _565  and  _566
REMARK  232  A    between atoms: _565  and  _568
REMARK  233  A    between atoms: _568  and  _569
REMARK  234  A    between atoms: _574  and  _576
REMARK  235  A    between atoms: _576  and  _577
REMARK  236  A    between atoms: _576  and  _579
REMARK  237  A    between atoms: _579  and  _580
REMARK  238  A    between atoms: _580  and  _581
REMARK  239  A    between atoms: _588  and  _589
REMARK  240  A    between atoms: _589  and  _605
REMARK  241  A    between atoms: _590  and  _592
REMARK  242  A    between atoms: _592  and  _593
REMARK  243  A    between atoms: _593  and  _594
REMARK  244  A    between atoms: _598  and  _600
REMARK  245  A    between atoms: _600  and  _601
REMARK  246  A    between atoms: _600  and  _608
REMARK  247  A    between atoms: _601  and  _602
REMARK  248  A    between atoms: _602  and  _603
REMARK  249  A    between atoms: _603  and  _604
REMARK  250  A    between atoms: _604  and  _605
REMARK  251  A    between atoms: _610  and  _612
REMARK  252  A    between atoms: _612  and  _613
REMARK  253  A    between atoms: _612  and  _615
REMARK  254  A    between atoms: _615  and  _616
REMARK  255  A    between atoms: _619  and  _621
REMARK  256  A    between atoms: _621  and  _622
REMARK  257  A    between atoms: _624  and  _626
REMARK  258  A    between atoms: _626  and  _627
REMARK  259  A    between atoms: _630  and  _632
REMARK  260  A    between atoms: _632  and  _633
REMARK  261  A    between atoms: _632  and  _635
REMARK  262  A    between atoms: _635  and  _636
REMARK  263  A    between atoms: _641  and  _642
REMARK                            x       y       z     vdW  Elec       q    Type
REMARK                         _______ _______ _______ _____ _____    ______ ____
ROOT
ATOM      1  O   HOH     1      26.904  23.594  21.664  0.00  0.00    +0.000 OA
ENDROOT
TORSDOF 0
REMARK  Name = ../refined-set-2016/2qrg/2qrg_pocket.pdb
REMARK  263 active torsions:
REMARK  status: ('A' for Active; 'I' for Inactive)
REMARK    1  A    between atoms: _1  and  _3
REMARK    2  A    between atoms: _3  and  _4
REMARK    3  A    between atoms: _3  and  _6
REMARK    4  A    between atoms: _6  and  _7
REMARK    5  A    between atoms: _12  and  _13
REMARK    6  A    between atoms: _15  and  _17
REMARK    7  A    between atoms: _17  and  _18
REMARK    8  A    between atoms: _17  and  _20
REMARK    9  A    between atoms: _20  and  _21
REMARK   10  A    between atoms: _24  and  _26
REMARK   11  A    between atoms: _26  and  _27
REMARK   12  A    between atoms: _26  and  _29
REMARK   13  A    between atoms: _29  and  _30
REMARK   14  A    between atoms: _30  and  _31
REMARK   15  A    between atoms: _34  and  _36
REMARK   16  A    between atoms: _36  and  _37
REMARK   17  A    between atoms: _36  and  _39
REMARK   18  A    between atoms: _39  and  _40
REMARK   19  A    between atoms: _45  and  _47
REMARK   20  A    between atoms: _47  and  _48
REMARK   21  A    between atoms: _50  and  _52
REMARK   22  A    between atoms: _52  and  _53
REMARK   23  A    between atoms: _55  and  _57
REMARK   24  A    between atoms: _57  and  _58
REMARK   25  A    between atoms: _57  and  _60
REMARK   26  A    between atoms: _60  and  _61
REMARK   27  A    between atoms: _64  and  _66
REMARK   28  A    between atoms: _66  and  _67
REMARK   29  A    between atoms: _69  and  _71
REMARK   30  A    between atoms: _71  and  _72
REMARK   31  A    between atoms: _71  and  _74
REMARK   32  A    between atoms: _74  and  _75
REMARK   33  A    between atoms: _75  and  _76
REMARK   34  A    between atoms: _76  and  _77
REMARK   35  A    between atoms: _86  and  _88
REMARK   36  A    between atoms: _88  and  _89
REMARK   37  A    between atoms: _88  and  _91
REMARK   38  A    between atoms: _91  and  _92
REMARK   39  A    between atoms: _95  and  _97
REMARK   40  A    between atoms: _97  and  _98
REMARK   41  A    between atoms: _101  and  _103
REMARK   42  A    between atoms: _103  and  _104
REMARK   43  A    between atoms: _103  and  _106
REMARK   44  A    between atoms: _106  and  _107
REMARK   45  A    between atoms: _113  and  _115
REMARK   46  A    between atoms: _115  and  _116
REMARK   47  A    between atoms: _115  and  _118
REMARK   48  A    between atoms: _118  and  _119
REMARK   49  A    between atoms: _122  and  _124
REMARK   50  A    between atoms: _124  and  _125
REMARK   51  A    between atoms: _124  and  _127
REMARK   52  A    between atoms: _127  and  _128
REMARK   53  A    between atoms: _133  and  _134
REMARK   54  A    between atoms: _137  and  _138
REMARK   55  A    between atoms: _143  and  _145
REMARK   56  A    between atoms: _145  and  _146
REMARK   57  A    between atoms: _145  and  _148
REMARK   58  A    between atoms: _148  and  _149
REMARK   59  A    between atoms: _154  and  _156
REMARK   60  A    between atoms: _156  and  _157
REMARK   61  A    between atoms: _156  and  _159
REMARK   62  A    between atoms: _159  and  _160
REMARK   63  A    between atoms: _163  and  _165
REMARK   64  A    between atoms: _165  and  _166
REMARK   65  A    between atoms: _165  and  _168
REMARK   66  A    between atoms: _168  and  _169
REMARK   67  A    between atoms: _174  and  _176
REMARK   68  A    between atoms: _176  and  _177
REMARK   69  A    between atoms: _176  and  _179
REMARK   70  A    between atoms: _179  and  _180
REMARK   71  A    between atoms: _186  and  _188
REMARK   72  A    between atoms: _188  and  _189
REMARK   73  A    between atoms: _188  and  _191
REMARK   74  A    between atoms: _191  and  _192
REMARK   75  A    between atoms: _198  and  _200
REMARK   76  A    between atoms: _200  and  _201
REMARK   77  A    between atoms: _200  and  _203
REMARK   78  A    between atoms: _203  and  _204
REMARK   79  A    between atoms: _204  and  _205
REMARK   80  A    between atoms: _208  and  _210
REMARK   81  A    between atoms: _210  and  _211
REMARK   82  A    between atoms: _210  and  _213
REMARK   83  A    between atoms: _213  and  _214
REMARK   84  A    between atoms: _214  and  _215
REMARK   85  A    between atoms: _215  and  _216
REMARK   86  A    between atoms: _225  and  _227
REMARK   87  A    between atoms: _227  and  _228
REMARK   88  A    between atoms: _227  and  _230
REMARK   89  A    between atoms: _230  and  _231
REMARK   90  A    between atoms: _231  and  _232
REMARK   91  A    between atoms: _235  and  _237
REMARK   92  A    between atoms: _237  and  _238
REMARK   93  A    between atoms: _237  and  _240
REMARK   94  A    between atoms: _240  and  _241
REMARK   95  A    between atoms: _246  and  _248
REMARK   96  A    between atoms: _248  and  _249
REMARK   97  A    between atoms: _248  and  _251
REMARK   98  A    between atoms: _251  and  _252
REMARK   99  A    between atoms: _255  and  _257
REMARK  100  A    between atoms: _257  and  _258
REMARK  101  A    between atoms: _257  and  _260
REMARK  102  A    between atoms: _260  and  _261
REMARK  103  A    between atoms: _264  and  _266
REMARK  104  A    between atoms: _266  and  _267
REMARK  105  A    between atoms: _266  and  _269
REMARK  106  A    between atoms: _269  and  _270
REMARK  107  A    between atoms: _275  and  _277
REMARK  108  A    between atoms: _277  and  _278
REMARK  109  A    between atoms: _277  and  _280
REMARK  110  A    between atoms: _280  and  _281
REMARK  111  A    between atoms: _284  and  _286
REMARK  112  A    between atoms: _286  and  _287
REMARK  113  A    between atoms: _286  and  _289
REMARK  114  A    between atoms: _289  and  _290
REMARK  115  A    between atoms: _295  and  _297
REMARK  116  A    between atoms: _297  and  _298
REMARK  117  A    between atoms: _297  and  _300
REMARK  118  A    between atoms: _300  and  _301
REMARK  119  A    between atoms: _306  and  _308
REMARK  120  A    between atoms: _308  and  _309
REMARK  121  A    between atoms: _308  and  _311
REMARK  122  A    between atoms: _311  and  _312
REMARK  123  A    between atoms: _315  and  _317
REMARK  124  A    between atoms: _317  and  _318
REMARK  125  A    between atoms: _317  and  _320
REMARK  126  A    between atoms: _323  and  _325
REMARK  127  A    between atoms: _325  and  _326
REMARK  128  A    between atoms: _325  and  _328
REMARK  129  A    between atoms: _328  and  _329
REMARK  130  A    between atoms: _332  and  _334
REMARK  131  A    between atoms: _334  and  _335
REMARK  132  A    between atoms: _334  and  _337
REMARK  133  A    between atoms: _337  and  _338
REMARK  134  A    between atoms: _338  and  _339
REMARK  135  A    between atoms: _342  and  _344
REMARK  136  A    between atoms: _344  and  _345
REMARK  137  A    between atoms: _348  and  _350
REMARK  138  A    between atoms: _350  and  _351
REMARK  139  A    between atoms: _350  and  _353
REMARK  140  A    between atoms: _353  and  _354
REMARK  141  A    between atoms: _357  and  _359
REMARK  142  A    between atoms: _359  and  _360
REMARK  143  A    between atoms: _359  and  _362
REMARK  144  A    between atoms: _362  and  _363
REMARK  145  A    between atoms: _363  and  _364
REMARK  146  A    between atoms: _367  and  _369
REMARK  147  A    between atoms: _369  and  _370
REMARK  148  A    between atoms: _369  and  _372
REMARK  149  A    between atoms: _372  and  _373
REMARK  150  A    between atoms: _378  and  _380
REMARK  151  A    between atoms: _380  and  _381
REMARK  152  A    between atoms: _383  and  _385
REMARK  153  A    between atoms: _385  and  _386
REMARK  154  A    between atoms: _385  and  _388
REMARK  155  A    between atoms: _391  and  _393
REMARK  156  A    between atoms: _393  and  _394
REMARK  157  A    between atoms: _397  and  _399
REMARK  158  A    between atoms: _399  and  _400
REMARK  159  A    between atoms: _399  and  _402
REMARK  160  A    between atoms: _402  and  _403
REMARK  161  A    between atoms: _408  and  _410
REMARK  162  A    between atoms: _410  and  _411
REMARK  163  A    between atoms: _410  and  _413
REMARK  164  A    between atoms: _413  and  _414
REMARK  165  A    between atoms: _414  and  _415
REMARK  166  A    between atoms: _415  and  _416
REMARK  167  A    between atoms: _416  and  _417
REMARK  168  A    between atoms: _421  and  _423
REMARK  169  A    between atoms: _423  and  _424
REMARK  170  A    between atoms: _423  and  _426
REMARK  171  A    between atoms: _426  and  _427
REMARK  172  A    between atoms: _430  and  _432
REMARK  173  A    between atoms: _432  and  _433
REMARK  174  A    between atoms: _432  and  _435
REMARK  175  A    between atoms: _435  and  _436
REMARK  176  A    between atoms: _441  and  _443
REMARK  177  A    between atoms: _443  and  _444
REMARK  178  A    between atoms: _446  and  _448
REMARK  179  A    between atoms: _448  and  _449
REMARK  180  A    between atoms: _448  and  _451
REMARK  181  A    between atoms: _451  and  _452
REMARK  182  A    between atoms: _452  and  _453
REMARK  183  A    between atoms: _453  and  _454
REMARK  184  A    between atoms: _454  and  _455
REMARK  185  A    between atoms: _459  and  _461
REMARK  186  A    between atoms: _461  and  _462
REMARK  187  A    between atoms: _461  and  _464
REMARK  188  A    between atoms: _464  and  _465
REMARK  189  A    between atoms: _465  and  _466
REMARK  190  A    between atoms: _466  and  _467
REMARK  191  A    between atoms: _476  and  _478
REMARK  192  A    between atoms: _478  and  _479
REMARK  193  A    between atoms: _478  and  _481
REMARK  194  A    between atoms: _481  and  _482
REMARK  195  A    between atoms: _487  and  _488
REMARK  196  A    between atoms: _490  and  _492
REMARK  197  A    between atoms: _492  and  _493
REMARK  198  A    between atoms: _492  and  _495
REMARK  199  A    between atoms: _495  and  _496
REMARK  200  A    between atoms: _496  and  _497
REMARK  201  A    between atoms: _497  and  _498
REMARK  202  A    between atoms: _498  and  _499
REMARK  203  A    between atoms: _503  and  _505
REMARK  204  A    between atoms: _505  and  _506
REMARK  205  A    between atoms: _505  and  _508
REMARK  206  A    between atoms: _508  and  _509
REMARK  207  A    between atoms: _511  and  _513
REMARK  208  A    between atoms: _513  and  _514
REMARK  209  A    between atoms: _513  and  _516
REMARK  210  A    between atoms: _516  and  _517
REMARK  211  A    between atoms: _520  and  _522
REMARK  212  A    between atoms: _522  and  _523
REMARK  213  A    between atoms: _522  and  _525
REMARK  214  A    between atoms: _525  and  _526
REMARK  215  A    between atoms: _526  and  _527
REMARK  216  A    between atoms: _530  and  _532
REMARK  217  A    between atoms: _532  and  _533
REMARK  218  A    between atoms: _536  and  _538
REMARK  219  A    between atoms: _538  and  _539
REMARK  220  A    between atoms: _538  and  _541
REMARK  221  A    between atoms: _541  and  _542
REMARK  222  A    between atoms: _544  and  _546
REMARK  223  A    between atoms: _546  and  _547
REMARK  224  A    between atoms: _549  and  _551
REMARK  225  A    between atoms: _551  and  _552
REMARK  226  A    between atoms: _551  and  _554
REMARK  227  A    between atoms: _554  and  _555
REMARK  228  A    between atoms: _558  and  _560
REMARK  229  A    between atoms: _560  and  _561
REMARK  230  A    between atoms: _563  and  _565
REMARK  231  A    between atoms: _565  and  _566
REMARK  232  A    between atoms: _565  and  _568
REMARK  233  A    between atoms: _568  and  _569
REMARK  234  A    between atoms: _574  and  _576
REMARK  235  A    between atoms: _576  and  _577
REMARK  236  A    between atoms: _576  and  _579
REMARK  237  A    between atoms: _579  and  _580
REMARK  238  A    between atoms: _580  and  _581
REMARK  239  A    between atoms: _588  and  _589
REMARK  240  A    between atoms: _589  and  _605
REMARK  241  A    between atoms: _590  and  _592
REMARK  242  A    between atoms: _592  and  _593
REMARK  243  A    between atoms: _593  and  _594
REMARK  244  A    between atoms: _598  and  _600
REMARK  245  A    between atoms: _600  and  _601
REMARK  246  A    between atoms: _600  and  _608
REMARK  247  A    between atoms: _601  and  _602
REMARK  248  A    between atoms: _602  and  _603
REMARK  249  A    between atoms: _603  and  _604
REMARK  250  A    between atoms: _604  and  _605
REMARK  251  A    between atoms: _610  and  _612
REMARK  252  A    between atoms: _612  and  _613
REMARK  253  A    between atoms: _612  and  _615
REMARK  254  A    between atoms: _615  and  _616
REMARK  255  A    between atoms: _619  and  _621
REMARK  256  A    between atoms: _621  and  _622
REMARK  257  A    between atoms: _624  and  _626
REMARK  258  A    between atoms: _626  and  _627
REMARK  259  A    between atoms: _630  and  _632
REMARK  260  A    between atoms: _632  and  _633
REMARK  261  A    between atoms: _632  and  _635
REMARK  262  A    between atoms: _635  and  _636
REMARK  263  A    between atoms: _641  and  _642
REMARK                            x       y       z     vdW  Elec       q    Type
REMARK                         _______ _______ _______ _____ _____    ______ ____
ROOT
ATOM      1  O   HOH     1      35.409  12.781  31.060  0.00  0.00    +0.000 OA
ENDROOT
TORSDOF 0
REMARK  Name = ../refined-set-2016/2qrg/2qrg_pocket.pdb
REMARK  263 active torsions:
REMARK  status: ('A' for Active; 'I' for Inactive)
REMARK    1  A    between atoms: _1  and  _3
REMARK    2  A    between atoms: _3  and  _4
REMARK    3  A    between atoms: _3  and  _6
REMARK    4  A    between atoms: _6  and  _7
REMARK    5  A    between atoms: _12  and  _13
REMARK    6  A    between atoms: _15  and  _17
REMARK    7  A    between atoms: _17  and  _18
REMARK    8  A    between atoms: _17  and  _20
REMARK    9  A    between atoms: _20  and  _21
REMARK   10  A    between atoms: _24  and  _26
REMARK   11  A    between atoms: _26  and  _27
REMARK   12  A    between atoms: _26  and  _29
REMARK   13  A    between atoms: _29  and  _30
REMARK   14  A    between atoms: _30  and  _31
REMARK   15  A    between atoms: _34  and  _36
REMARK   16  A    between atoms: _36  and  _37
REMARK   17  A    between atoms: _36  and  _39
REMARK   18  A    between atoms: _39  and  _40
REMARK   19  A    between atoms: _45  and  _47
REMARK   20  A    between atoms: _47  and  _48
REMARK   21  A    between atoms: _50  and  _52
REMARK   22  A    between atoms: _52  and  _53
REMARK   23  A    between atoms: _55  and  _57
REMARK   24  A    between atoms: _57  and  _58
REMARK   25  A    between atoms: _57  and  _60
REMARK   26  A    between atoms: _60  and  _61
REMARK   27  A    between atoms: _64  and  _66
REMARK   28  A    between atoms: _66  and  _67
REMARK   29  A    between atoms: _69  and  _71
REMARK   30  A    between atoms: _71  and  _72
REMARK   31  A    between atoms: _71  and  _74
REMARK   32  A    between atoms: _74  and  _75
REMARK   33  A    between atoms: _75  and  _76
REMARK   34  A    between atoms: _76  and  _77
REMARK   35  A    between atoms: _86  and  _88
REMARK   36  A    between atoms: _88  and  _89
REMARK   37  A    between atoms: _88  and  _91
REMARK   38  A    between atoms: _91  and  _92
REMARK   39  A    between atoms: _95  and  _97
REMARK   40  A    between atoms: _97  and  _98
REMARK   41  A    between atoms: _101  and  _103
REMARK   42  A    between atoms: _103  and  _104
REMARK   43  A    between atoms: _103  and  _106
REMARK   44  A    between atoms: _106  and  _107
REMARK   45  A    between atoms: _113  and  _115
REMARK   46  A    between atoms: _115  and  _116
REMARK   47  A    between atoms: _115  and  _118
REMARK   48  A    between atoms: _118  and  _119
REMARK   49  A    between atoms: _122  and  _124
REMARK   50  A    between atoms: _124  and  _125
REMARK   51  A    between atoms: _124  and  _127
REMARK   52  A    between atoms: _127  and  _128
REMARK   53  A    between atoms: _133  and  _134
REMARK   54  A    between atoms: _137  and  _138
REMARK   55  A    between atoms: _143  and  _145
REMARK   56  A    between atoms: _145  and  _146
REMARK   57  A    between atoms: _145  and  _148
REMARK   58  A    between atoms: _148  and  _149
REMARK   59  A    between atoms: _154  and  _156
REMARK   60  A    between atoms: _156  and  _157
REMARK   61  A    between atoms: _156  and  _159
REMARK   62  A    between atoms: _159  and  _160
REMARK   63  A    between atoms: _163  and  _165
REMARK   64  A    between atoms: _165  and  _166
REMARK   65  A    between atoms: _165  and  _168
REMARK   66  A    between atoms: _168  and  _169
REMARK   67  A    between atoms: _174  and  _176
REMARK   68  A    between atoms: _176  and  _177
REMARK   69  A    between atoms: _176  and  _179
REMARK   70  A    between atoms: _179  and  _180
REMARK   71  A    between atoms: _186  and  _188
REMARK   72  A    between atoms: _188  and  _189
REMARK   73  A    between atoms: _188  and  _191
REMARK   74  A    between atoms: _191  and  _192
REMARK   75  A    between atoms: _198  and  _200
REMARK   76  A    between atoms: _200  and  _201
REMARK   77  A    between atoms: _200  and  _203
REMARK   78  A    between atoms: _203  and  _204
REMARK   79  A    between atoms: _204  and  _205
REMARK   80  A    between atoms: _208  and  _210
REMARK   81  A    between atoms: _210  and  _211
REMARK   82  A    between atoms: _210  and  _213
REMARK   83  A    between atoms: _213  and  _214
REMARK   84  A    between atoms: _214  and  _215
REMARK   85  A    between atoms: _215  and  _216
REMARK   86  A    between atoms: _225  and  _227
REMARK   87  A    between atoms: _227  and  _228
REMARK   88  A    between atoms: _227  and  _230
REMARK   89  A    between atoms: _230  and  _231
REMARK   90  A    between atoms: _231  and  _232
REMARK   91  A    between atoms: _235  and  _237
REMARK   92  A    between atoms: _237  and  _238
REMARK   93  A    between atoms: _237  and  _240
REMARK   94  A    between atoms: _240  and  _241
REMARK   95  A    between atoms: _246  and  _248
REMARK   96  A    between atoms: _248  and  _249
REMARK   97  A    between atoms: _248  and  _251
REMARK   98  A    between atoms: _251  and  _252
REMARK   99  A    between atoms: _255  and  _257
REMARK  100  A    between atoms: _257  and  _258
REMARK  101  A    between atoms: _257  and  _260
REMARK  102  A    between atoms: _260  and  _261
REMARK  103  A    between atoms: _264  and  _266
REMARK  104  A    between atoms: _266  and  _267
REMARK  105  A    between atoms: _266  and  _269
REMARK  106  A    between atoms: _269  and  _270
REMARK  107  A    between atoms: _275  and  _277
REMARK  108  A    between atoms: _277  and  _278
REMARK  109  A    between atoms: _277  and  _280
REMARK  110  A    between atoms: _280  and  _281
REMARK  111  A    between atoms: _284  and  _286
REMARK  112  A    between atoms: _286  and  _287
REMARK  113  A    between atoms: _286  and  _289
REMARK  114  A    between atoms: _289  and  _290
REMARK  115  A    between atoms: _295  and  _297
REMARK  116  A    between atoms: _297  and  _298
REMARK  117  A    between atoms: _297  and  _300
REMARK  118  A    between atoms: _300  and  _301
REMARK  119  A    between atoms: _306  and  _308
REMARK  120  A    between atoms: _308  and  _309
REMARK  121  A    between atoms: _308  and  _311
REMARK  122  A    between atoms: _311  and  _312
REMARK  123  A    between atoms: _315  and  _317
REMARK  124  A    between atoms: _317  and  _318
REMARK  125  A    between atoms: _317  and  _320
REMARK  126  A    between atoms: _323  and  _325
REMARK  127  A    between atoms: _325  and  _326
REMARK  128  A    between atoms: _325  and  _328
REMARK  129  A    between atoms: _328  and  _329
REMARK  130  A    between atoms: _332  and  _334
REMARK  131  A    between atoms: _334  and  _335
REMARK  132  A    between atoms: _334  and  _337
REMARK  133  A    between atoms: _337  and  _338
REMARK  134  A    between atoms: _338  and  _339
REMARK  135  A    between atoms: _342  and  _344
REMARK  136  A    between atoms: _344  and  _345
REMARK  137  A    between atoms: _348  and  _350
REMARK  138  A    between atoms: _350  and  _351
REMARK  139  A    between atoms: _350  and  _353
REMARK  140  A    between atoms: _353  and  _354
REMARK  141  A    between atoms: _357  and  _359
REMARK  142  A    between atoms: _359  and  _360
REMARK  143  A    between atoms: _359  and  _362
REMARK  144  A    between atoms: _362  and  _363
REMARK  145  A    between atoms: _363  and  _364
REMARK  146  A    between atoms: _367  and  _369
REMARK  147  A    between atoms: _369  and  _370
REMARK  148  A    between atoms: _369  and  _372
REMARK  149  A    between atoms: _372  and  _373
REMARK  150  A    between atoms: _378  and  _380
REMARK  151  A    between atoms: _380  and  _381
REMARK  152  A    between atoms: _383  and  _385
REMARK  153  A    between atoms: _385  and  _386
REMARK  154  A    between atoms: _385  and  _388
REMARK  155  A    between atoms: _391  and  _393
REMARK  156  A    between atoms: _393  and  _394
REMARK  157  A    between atoms: _397  and  _399
REMARK  158  A    between atoms: _399  and  _400
REMARK  159  A    between atoms: _399  and  _402
REMARK  160  A    between atoms: _402  and  _403
REMARK  161  A    between atoms: _408  and  _410
REMARK  162  A    between atoms: _410  and  _411
REMARK  163  A    between atoms: _410  and  _413
REMARK  164  A    between atoms: _413  and  _414
REMARK  165  A    between atoms: _414  and  _415
REMARK  166  A    between atoms: _415  and  _416
REMARK  167  A    between atoms: _416  and  _417
REMARK  168  A    between atoms: _421  and  _423
REMARK  169  A    between atoms: _423  and  _424
REMARK  170  A    between atoms: _423  and  _426
REMARK  171  A    between atoms: _426  and  _427
REMARK  172  A    between atoms: _430  and  _432
REMARK  173  A    between atoms: _432  and  _433
REMARK  174  A    between atoms: _432  and  _435
REMARK  175  A    between atoms: _435  and  _436
REMARK  176  A    between atoms: _441  and  _443
REMARK  177  A    between atoms: _443  and  _444
REMARK  178  A    between atoms: _446  and  _448
REMARK  179  A    between atoms: _448  and  _449
REMARK  180  A    between atoms: _448  and  _451
REMARK  181  A    between atoms: _451  and  _452
REMARK  182  A    between atoms: _452  and  _453
REMARK  183  A    between atoms: _453  and  _454
REMARK  184  A    between atoms: _454  and  _455
REMARK  185  A    between atoms: _459  and  _461
REMARK  186  A    between atoms: _461  and  _462
REMARK  187  A    between atoms: _461  and  _464
REMARK  188  A    between atoms: _464  and  _465
REMARK  189  A    between atoms: _465  and  _466
REMARK  190  A    between atoms: _466  and  _467
REMARK  191  A    between atoms: _476  and  _478
REMARK  192  A    between atoms: _478  and  _479
REMARK  193  A    between atoms: _478  and  _481
REMARK  194  A    between atoms: _481  and  _482
REMARK  195  A    between atoms: _487  and  _488
REMARK  196  A    between atoms: _490  and  _492
REMARK  197  A    between atoms: _492  and  _493
REMARK  198  A    between atoms: _492  and  _495
REMARK  199  A    between atoms: _495  and  _496
REMARK  200  A    between atoms: _496  and  _497
REMARK  201  A    between atoms: _497  and  _498
REMARK  202  A    between atoms: _498  and  _499
REMARK  203  A    between atoms: _503  and  _505
REMARK  204  A    between atoms: _505  and  _506
REMARK  205  A    between atoms: _505  and  _508
REMARK  206  A    between atoms: _508  and  _509
REMARK  207  A    between atoms: _511  and  _513
REMARK  208  A    between atoms: _513  and  _514
REMARK  209  A    between atoms: _513  and  _516
REMARK  210  A    between atoms: _516  and  _517
REMARK  211  A    between atoms: _520  and  _522
REMARK  212  A    between atoms: _522  and  _523
REMARK  213  A    between atoms: _522  and  _525
REMARK  214  A    between atoms: _525  and  _526
REMARK  215  A    between atoms: _526  and  _527
REMARK  216  A    between atoms: _530  and  _532
REMARK  217  A    between atoms: _532  and  _533
REMARK  218  A    between atoms: _536  and  _538
REMARK  219  A    between atoms: _538  and  _539
REMARK  220  A    between atoms: _538  and  _541
REMARK  221  A    between atoms: _541  and  _542
REMARK  222  A    between atoms: _544  and  _546
REMARK  223  A    between atoms: _546  and  _547
REMARK  224  A    between atoms: _549  and  _551
REMARK  225  A    between atoms: _551  and  _552
REMARK  226  A    between atoms: _551  and  _554
REMARK  227  A    between atoms: _554  and  _555
REMARK  228  A    between atoms: _558  and  _560
REMARK  229  A    between atoms: _560  and  _561
REMARK  230  A    between atoms: _563  and  _565
REMARK  231  A    between atoms: _565  and  _566
REMARK  232  A    between atoms: _565  and  _568
REMARK  233  A    between atoms: _568  and  _569
REMARK  234  A    between atoms: _574  and  _576
REMARK  235  A    between atoms: _576  and  _577
REMARK  236  A    between atoms: _576  and  _579
REMARK  237  A    between atoms: _579  and  _580
REMARK  238  A    between atoms: _580  and  _581
REMARK  239  A    between atoms: _588  and  _589
REMARK  240  A    between atoms: _589  and  _605
REMARK  241  A    between atoms: _590  and  _592
REMARK  242  A    between atoms: _592  and  _593
REMARK  243  A    between atoms: _593  and  _594
REMARK  244  A    between atoms: _598  and  _600
REMARK  245  A    between atoms: _600  and  _601
REMARK  246  A    between atoms: _600  and  _608
REMARK  247  A    between atoms: _601  and  _602
REMARK  248  A    between atoms: _602  and  _603
REMARK  249  A    between atoms: _603  and  _604
REMARK  250  A    between atoms: _604  and  _605
REMARK  251  A    between atoms: _610  and  _612
REMARK  252  A    between atoms: _612  and  _613
REMARK  253  A    between atoms: _612  and  _615
REMARK  254  A    between atoms: _615  and  _616
REMARK  255  A    between atoms: _619  and  _621
REMARK  256  A    between atoms: _621  and  _622
REMARK  257  A    between atoms: _624  and  _626
REMARK  258  A    between atoms: _626  and  _627
REMARK  259  A    between atoms: _630  and  _632
REMARK  260  A    between atoms: _632  and  _633
REMARK  261  A    between atoms: _632  and  _635
REMARK  262  A    between atoms: _635  and  _636
REMARK  263  A    between atoms: _641  and  _642
REMARK                            x       y       z     vdW  Elec       q    Type
REMARK                         _______ _______ _______ _____ _____    ______ ____
ROOT
ATOM      1  O   HOH     1      36.758  19.564  36.965  0.00  0.00    +0.000 OA
ENDROOT
TORSDOF 0
REMARK  Name = ../refined-set-2016/2qrg/2qrg_pocket.pdb
REMARK  263 active torsions:
REMARK  status: ('A' for Active; 'I' for Inactive)
REMARK    1  A    between atoms: _1  and  _3
REMARK    2  A    between atoms: _3  and  _4
REMARK    3  A    between atoms: _3  and  _6
REMARK    4  A    between atoms: _6  and  _7
REMARK    5  A    between atoms: _12  and  _13
REMARK    6  A    between atoms: _15  and  _17
REMARK    7  A    between atoms: _17  and  _18
REMARK    8  A    between atoms: _17  and  _20
REMARK    9  A    between atoms: _20  and  _21
REMARK   10  A    between atoms: _24  and  _26
REMARK   11  A    between atoms: _26  and  _27
REMARK   12  A    between atoms: _26  and  _29
REMARK   13  A    between atoms: _29  and  _30
REMARK   14  A    between atoms: _30  and  _31
REMARK   15  A    between atoms: _34  and  _36
REMARK   16  A    between atoms: _36  and  _37
REMARK   17  A    between atoms: _36  and  _39
REMARK   18  A    between atoms: _39  and  _40
REMARK   19  A    between atoms: _45  and  _47
REMARK   20  A    between atoms: _47  and  _48
REMARK   21  A    between atoms: _50  and  _52
REMARK   22  A    between atoms: _52  and  _53
REMARK   23  A    between atoms: _55  and  _57
REMARK   24  A    between atoms: _57  and  _58
REMARK   25  A    between atoms: _57  and  _60
REMARK   26  A    between atoms: _60  and  _61
REMARK   27  A    between atoms: _64  and  _66
REMARK   28  A    between atoms: _66  and  _67
REMARK   29  A    between atoms: _69  and  _71
REMARK   30  A    between atoms: _71  and  _72
REMARK   31  A    between atoms: _71  and  _74
REMARK   32  A    between atoms: _74  and  _75
REMARK   33  A    between atoms: _75  and  _76
REMARK   34  A    between atoms: _76  and  _77
REMARK   35  A    between atoms: _86  and  _88
REMARK   36  A    between atoms: _88  and  _89
REMARK   37  A    between atoms: _88  and  _91
REMARK   38  A    between atoms: _91  and  _92
REMARK   39  A    between atoms: _95  and  _97
REMARK   40  A    between atoms: _97  and  _98
REMARK   41  A    between atoms: _101  and  _103
REMARK   42  A    between atoms: _103  and  _104
REMARK   43  A    between atoms: _103  and  _106
REMARK   44  A    between atoms: _106  and  _107
REMARK   45  A    between atoms: _113  and  _115
REMARK   46  A    between atoms: _115  and  _116
REMARK   47  A    between atoms: _115  and  _118
REMARK   48  A    between atoms: _118  and  _119
REMARK   49  A    between atoms: _122  and  _124
REMARK   50  A    between atoms: _124  and  _125
REMARK   51  A    between atoms: _124  and  _127
REMARK   52  A    between atoms: _127  and  _128
REMARK   53  A    between atoms: _133  and  _134
REMARK   54  A    between atoms: _137  and  _138
REMARK   55  A    between atoms: _143  and  _145
REMARK   56  A    between atoms: _145  and  _146
REMARK   57  A    between atoms: _145  and  _148
REMARK   58  A    between atoms: _148  and  _149
REMARK   59  A    between atoms: _154  and  _156
REMARK   60  A    between atoms: _156  and  _157
REMARK   61  A    between atoms: _156  and  _159
REMARK   62  A    between atoms: _159  and  _160
REMARK   63  A    between atoms: _163  and  _165
REMARK   64  A    between atoms: _165  and  _166
REMARK   65  A    between atoms: _165  and  _168
REMARK   66  A    between atoms: _168  and  _169
REMARK   67  A    between atoms: _174  and  _176
REMARK   68  A    between atoms: _176  and  _177
REMARK   69  A    between atoms: _176  and  _179
REMARK   70  A    between atoms: _179  and  _180
REMARK   71  A    between atoms: _186  and  _188
REMARK   72  A    between atoms: _188  and  _189
REMARK   73  A    between atoms: _188  and  _191
REMARK   74  A    between atoms: _191  and  _192
REMARK   75  A    between atoms: _198  and  _200
REMARK   76  A    between atoms: _200  and  _201
REMARK   77  A    between atoms: _200  and  _203
REMARK   78  A    between atoms: _203  and  _204
REMARK   79  A    between atoms: _204  and  _205
REMARK   80  A    between atoms: _208  and  _210
REMARK   81  A    between atoms: _210  and  _211
REMARK   82  A    between atoms: _210  and  _213
REMARK   83  A    between atoms: _213  and  _214
REMARK   84  A    between atoms: _214  and  _215
REMARK   85  A    between atoms: _215  and  _216
REMARK   86  A    between atoms: _225  and  _227
REMARK   87  A    between atoms: _227  and  _228
REMARK   88  A    between atoms: _227  and  _230
REMARK   89  A    between atoms: _230  and  _231
REMARK   90  A    between atoms: _231  and  _232
REMARK   91  A    between atoms: _235  and  _237
REMARK   92  A    between atoms: _237  and  _238
REMARK   93  A    between atoms: _237  and  _240
REMARK   94  A    between atoms: _240  and  _241
REMARK   95  A    between atoms: _246  and  _248
REMARK   96  A    between atoms: _248  and  _249
REMARK   97  A    between atoms: _248  and  _251
REMARK   98  A    between atoms: _251  and  _252
REMARK   99  A    between atoms: _255  and  _257
REMARK  100  A    between atoms: _257  and  _258
REMARK  101  A    between atoms: _257  and  _260
REMARK  102  A    between atoms: _260  and  _261
REMARK  103  A    between atoms: _264  and  _266
REMARK  104  A    between atoms: _266  and  _267
REMARK  105  A    between atoms: _266  and  _269
REMARK  106  A    between atoms: _269  and  _270
REMARK  107  A    between atoms: _275  and  _277
REMARK  108  A    between atoms: _277  and  _278
REMARK  109  A    between atoms: _277  and  _280
REMARK  110  A    between atoms: _280  and  _281
REMARK  111  A    between atoms: _284  and  _286
REMARK  112  A    between atoms: _286  and  _287
REMARK  113  A    between atoms: _286  and  _289
REMARK  114  A    between atoms: _289  and  _290
REMARK  115  A    between atoms: _295  and  _297
REMARK  116  A    between atoms: _297  and  _298
REMARK  117  A    between atoms: _297  and  _300
REMARK  118  A    between atoms: _300  and  _301
REMARK  119  A    between atoms: _306  and  _308
REMARK  120  A    between atoms: _308  and  _309
REMARK  121  A    between atoms: _308  and  _311
REMARK  122  A    between atoms: _311  and  _312
REMARK  123  A    between atoms: _315  and  _317
REMARK  124  A    between atoms: _317  and  _318
REMARK  125  A    between atoms: _317  and  _320
REMARK  126  A    between atoms: _323  and  _325
REMARK  127  A    between atoms: _325  and  _326
REMARK  128  A    between atoms: _325  and  _328
REMARK  129  A    between atoms: _328  and  _329
REMARK  130  A    between atoms: _332  and  _334
REMARK  131  A    between atoms: _334  and  _335
REMARK  132  A    between atoms: _334  and  _337
REMARK  133  A    between atoms: _337  and  _338
REMARK  134  A    between atoms: _338  and  _339
REMARK  135  A    between atoms: _342  and  _344
REMARK  136  A    between atoms: _344  and  _345
REMARK  137  A    between atoms: _348  and  _350
REMARK  138  A    between atoms: _350  and  _351
REMARK  139  A    between atoms: _350  and  _353
REMARK  140  A    between atoms: _353  and  _354
REMARK  141  A    between atoms: _357  and  _359
REMARK  142  A    between atoms: _359  and  _360
REMARK  143  A    between atoms: _359  and  _362
REMARK  144  A    between atoms: _362  and  _363
REMARK  145  A    between atoms: _363  and  _364
REMARK  146  A    between atoms: _367  and  _369
REMARK  147  A    between atoms: _369  and  _370
REMARK  148  A    between atoms: _369  and  _372
REMARK  149  A    between atoms: _372  and  _373
REMARK  150  A    between atoms: _378  and  _380
REMARK  151  A    between atoms: _380  and  _381
REMARK  152  A    between atoms: _383  and  _385
REMARK  153  A    between atoms: _385  and  _386
REMARK  154  A    between atoms: _385  and  _388
REMARK  155  A    between atoms: _391  and  _393
REMARK  156  A    between atoms: _393  and  _394
REMARK  157  A    between atoms: _397  and  _399
REMARK  158  A    between atoms: _399  and  _400
REMARK  159  A    between atoms: _399  and  _402
REMARK  160  A    between atoms: _402  and  _403
REMARK  161  A    between atoms: _408  and  _410
REMARK  162  A    between atoms: _410  and  _411
REMARK  163  A    between atoms: _410  and  _413
REMARK  164  A    between atoms: _413  and  _414
REMARK  165  A    between atoms: _414  and  _415
REMARK  166  A    between atoms: _415  and  _416
REMARK  167  A    between atoms: _416  and  _417
REMARK  168  A    between atoms: _421  and  _423
REMARK  169  A    between atoms: _423  and  _424
REMARK  170  A    between atoms: _423  and  _426
REMARK  171  A    between atoms: _426  and  _427
REMARK  172  A    between atoms: _430  and  _432
REMARK  173  A    between atoms: _432  and  _433
REMARK  174  A    between atoms: _432  and  _435
REMARK  175  A    between atoms: _435  and  _436
REMARK  176  A    between atoms: _441  and  _443
REMARK  177  A    between atoms: _443  and  _444
REMARK  178  A    between atoms: _446  and  _448
REMARK  179  A    between atoms: _448  and  _449
REMARK  180  A    between atoms: _448  and  _451
REMARK  181  A    between atoms: _451  and  _452
REMARK  182  A    between atoms: _452  and  _453
REMARK  183  A    between atoms: _453  and  _454
REMARK  184  A    between atoms: _454  and  _455
REMARK  185  A    between atoms: _459  and  _461
REMARK  186  A    between atoms: _461  and  _462
REMARK  187  A    between atoms: _461  and  _464
REMARK  188  A    between atoms: _464  and  _465
REMARK  189  A    between atoms: _465  and  _466
REMARK  190  A    between atoms: _466  and  _467
REMARK  191  A    between atoms: _476  and  _478
REMARK  192  A    between atoms: _478  and  _479
REMARK  193  A    between atoms: _478  and  _481
REMARK  194  A    between atoms: _481  and  _482
REMARK  195  A    between atoms: _487  and  _488
REMARK  196  A    between atoms: _490  and  _492
REMARK  197  A    between atoms: _492  and  _493
REMARK  198  A    between atoms: _492  and  _495
REMARK  199  A    between atoms: _495  and  _496
REMARK  200  A    between atoms: _496  and  _497
REMARK  201  A    between atoms: _497  and  _498
REMARK  202  A    between atoms: _498  and  _499
REMARK  203  A    between atoms: _503  and  _505
REMARK  204  A    between atoms: _505  and  _506
REMARK  205  A    between atoms: _505  and  _508
REMARK  206  A    between atoms: _508  and  _509
REMARK  207  A    between atoms: _511  and  _513
REMARK  208  A    between atoms: _513  and  _514
REMARK  209  A    between atoms: _513  and  _516
REMARK  210  A    between atoms: _516  and  _517
REMARK  211  A    between atoms: _520  and  _522
REMARK  212  A    between atoms: _522  and  _523
REMARK  213  A    between atoms: _522  and  _525
REMARK  214  A    between atoms: _525  and  _526
REMARK  215  A    between atoms: _526  and  _527
REMARK  216  A    between atoms: _530  and  _532
REMARK  217  A    between atoms: _532  and  _533
REMARK  218  A    between atoms: _536  and  _538
REMARK  219  A    between atoms: _538  and  _539
REMARK  220  A    between atoms: _538  and  _541
REMARK  221  A    between atoms: _541  and  _542
REMARK  222  A    between atoms: _544  and  _546
REMARK  223  A    between atoms: _546  and  _547
REMARK  224  A    between atoms: _549  and  _551
REMARK  225  A    between atoms: _551  and  _552
REMARK  226  A    between atoms: _551  and  _554
REMARK  227  A    between atoms: _554  and  _555
REMARK  228  A    between atoms: _558  and  _560
REMARK  229  A    between atoms: _560  and  _561
REMARK  230  A    between atoms: _563  and  _565
REMARK  231  A    between atoms: _565  and  _566
REMARK  232  A    between atoms: _565  and  _568
REMARK  233  A    between atoms: _568  and  _569
REMARK  234  A    between atoms: _574  and  _576
REMARK  235  A    between atoms: _576  and  _577
REMARK  236  A    between atoms: _576  and  _579
REMARK  237  A    between atoms: _579  and  _580
REMARK  238  A    between atoms: _580  and  _581
REMARK  239  A    between atoms: _588  and  _589
REMARK  240  A    between atoms: _589  and  _605
REMARK  241  A    between atoms: _590  and  _592
REMARK  242  A    between atoms: _592  and  _593
REMARK  243  A    between atoms: _593  and  _594
REMARK  244  A    between atoms: _598  and  _600
REMARK  245  A    between atoms: _600  and  _601
REMARK  246  A    between atoms: _600  and  _608
REMARK  247  A    between atoms: _601  and  _602
REMARK  248  A    between atoms: _602  and  _603
REMARK  249  A    between atoms: _603  and  _604
REMARK  250  A    between atoms: _604  and  _605
REMARK  251  A    between atoms: _610  and  _612
REMARK  252  A    between atoms: _612  and  _613
REMARK  253  A    between atoms: _612  and  _615
REMARK  254  A    between atoms: _615  and  _616
REMARK  255  A    between atoms: _619  and  _621
REMARK  256  A    between atoms: _621  and  _622
REMARK  257  A    between atoms: _624  and  _626
REMARK  258  A    between atoms: _626  and  _627
REMARK  259  A    between atoms: _630  and  _632
REMARK  260  A    between atoms: _632  and  _633
REMARK  261  A    between atoms: _632  and  _635
REMARK  262  A    between atoms: _635  and  _636
REMARK  263  A    between atoms: _641  and  _642
REMARK                            x       y       z     vdW  Elec       q    Type
REMARK                         _______ _______ _______ _____ _____    ______ ____
ROOT
ATOM      1  O   HOH     1      30.851  23.833  33.554  0.00  0.00    +0.000 OA
ENDROOT
TORSDOF 0
REMARK  Name = ../refined-set-2016/2qrg/2qrg_pocket.pdb
REMARK  263 active torsions:
REMARK  status: ('A' for Active; 'I' for Inactive)
REMARK    1  A    between atoms: _1  and  _3
REMARK    2  A    between atoms: _3  and  _4
REMARK    3  A    between atoms: _3  and  _6
REMARK    4  A    between atoms: _6  and  _7
REMARK    5  A    between atoms: _12  and  _13
REMARK    6  A    between atoms: _15  and  _17
REMARK    7  A    between atoms: _17  and  _18
REMARK    8  A    between atoms: _17  and  _20
REMARK    9  A    between atoms: _20  and  _21
REMARK   10  A    between atoms: _24  and  _26
REMARK   11  A    between atoms: _26  and  _27
REMARK   12  A    between atoms: _26  and  _29
REMARK   13  A    between atoms: _29  and  _30
REMARK   14  A    between atoms: _30  and  _31
REMARK   15  A    between atoms: _34  and  _36
REMARK   16  A    between atoms: _36  and  _37
REMARK   17  A    between atoms: _36  and  _39
REMARK   18  A    between atoms: _39  and  _40
REMARK   19  A    between atoms: _45  and  _47
REMARK   20  A    between atoms: _47  and  _48
REMARK   21  A    between atoms: _50  and  _52
REMARK   22  A    between atoms: _52  and  _53
REMARK   23  A    between atoms: _55  and  _57
REMARK   24  A    between atoms: _57  and  _58
REMARK   25  A    between atoms: _57  and  _60
REMARK   26  A    between atoms: _60  and  _61
REMARK   27  A    between atoms: _64  and  _66
REMARK   28  A    between atoms: _66  and  _67
REMARK   29  A    between atoms: _69  and  _71
REMARK   30  A    between atoms: _71  and  _72
REMARK   31  A    between atoms: _71  and  _74
REMARK   32  A    between atoms: _74  and  _75
REMARK   33  A    between atoms: _75  and  _76
REMARK   34  A    between atoms: _76  and  _77
REMARK   35  A    between atoms: _86  and  _88
REMARK   36  A    between atoms: _88  and  _89
REMARK   37  A    between atoms: _88  and  _91
REMARK   38  A    between atoms: _91  and  _92
REMARK   39  A    between atoms: _95  and  _97
REMARK   40  A    between atoms: _97  and  _98
REMARK   41  A    between atoms: _101  and  _103
REMARK   42  A    between atoms: _103  and  _104
REMARK   43  A    between atoms: _103  and  _106
REMARK   44  A    between atoms: _106  and  _107
REMARK   45  A    between atoms: _113  and  _115
REMARK   46  A    between atoms: _115  and  _116
REMARK   47  A    between atoms: _115  and  _118
REMARK   48  A    between atoms: _118  and  _119
REMARK   49  A    between atoms: _122  and  _124
REMARK   50  A    between atoms: _124  and  _125
REMARK   51  A    between atoms: _124  and  _127
REMARK   52  A    between atoms: _127  and  _128
REMARK   53  A    between atoms: _133  and  _134
REMARK   54  A    between atoms: _137  and  _138
REMARK   55  A    between atoms: _143  and  _145
REMARK   56  A    between atoms: _145  and  _146
REMARK   57  A    between atoms: _145  and  _148
REMARK   58  A    between atoms: _148  and  _149
REMARK   59  A    between atoms: _154  and  _156
REMARK   60  A    between atoms: _156  and  _157
REMARK   61  A    between atoms: _156  and  _159
REMARK   62  A    between atoms: _159  and  _160
REMARK   63  A    between atoms: _163  and  _165
REMARK   64  A    between atoms: _165  and  _166
REMARK   65  A    between atoms: _165  and  _168
REMARK   66  A    between atoms: _168  and  _169
REMARK   67  A    between atoms: _174  and  _176
REMARK   68  A    between atoms: _176  and  _177
REMARK   69  A    between atoms: _176  and  _179
REMARK   70  A    between atoms: _179  and  _180
REMARK   71  A    between atoms: _186  and  _188
REMARK   72  A    between atoms: _188  and  _189
REMARK   73  A    between atoms: _188  and  _191
REMARK   74  A    between atoms: _191  and  _192
REMARK   75  A    between atoms: _198  and  _200
REMARK   76  A    between atoms: _200  and  _201
REMARK   77  A    between atoms: _200  and  _203
REMARK   78  A    between atoms: _203  and  _204
REMARK   79  A    between atoms: _204  and  _205
REMARK   80  A    between atoms: _208  and  _210
REMARK   81  A    between atoms: _210  and  _211
REMARK   82  A    between atoms: _210  and  _213
REMARK   83  A    between atoms: _213  and  _214
REMARK   84  A    between atoms: _214  and  _215
REMARK   85  A    between atoms: _215  and  _216
REMARK   86  A    between atoms: _225  and  _227
REMARK   87  A    between atoms: _227  and  _228
REMARK   88  A    between atoms: _227  and  _230
REMARK   89  A    between atoms: _230  and  _231
REMARK   90  A    between atoms: _231  and  _232
REMARK   91  A    between atoms: _235  and  _237
REMARK   92  A    between atoms: _237  and  _238
REMARK   93  A    between atoms: _237  and  _240
REMARK   94  A    between atoms: _240  and  _241
REMARK   95  A    between atoms: _246  and  _248
REMARK   96  A    between atoms: _248  and  _249
REMARK   97  A    between atoms: _248  and  _251
REMARK   98  A    between atoms: _251  and  _252
REMARK   99  A    between atoms: _255  and  _257
REMARK  100  A    between atoms: _257  and  _258
REMARK  101  A    between atoms: _257  and  _260
REMARK  102  A    between atoms: _260  and  _261
REMARK  103  A    between atoms: _264  and  _266
REMARK  104  A    between atoms: _266  and  _267
REMARK  105  A    between atoms: _266  and  _269
REMARK  106  A    between atoms: _269  and  _270
REMARK  107  A    between atoms: _275  and  _277
REMARK  108  A    between atoms: _277  and  _278
REMARK  109  A    between atoms: _277  and  _280
REMARK  110  A    between atoms: _280  and  _281
REMARK  111  A    between atoms: _284  and  _286
REMARK  112  A    between atoms: _286  and  _287
REMARK  113  A    between atoms: _286  and  _289
REMARK  114  A    between atoms: _289  and  _290
REMARK  115  A    between atoms: _295  and  _297
REMARK  116  A    between atoms: _297  and  _298
REMARK  117  A    between atoms: _297  and  _300
REMARK  118  A    between atoms: _300  and  _301
REMARK  119  A    between atoms: _306  and  _308
REMARK  120  A    between atoms: _308  and  _309
REMARK  121  A    between atoms: _308  and  _311
REMARK  122  A    between atoms: _311  and  _312
REMARK  123  A    between atoms: _315  and  _317
REMARK  124  A    between atoms: _317  and  _318
REMARK  125  A    between atoms: _317  and  _320
REMARK  126  A    between atoms: _323  and  _325
REMARK  127  A    between atoms: _325  and  _326
REMARK  128  A    between atoms: _325  and  _328
REMARK  129  A    between atoms: _328  and  _329
REMARK  130  A    between atoms: _332  and  _334
REMARK  131  A    between atoms: _334  and  _335
REMARK  132  A    between atoms: _334  and  _337
REMARK  133  A    between atoms: _337  and  _338
REMARK  134  A    between atoms: _338  and  _339
REMARK  135  A    between atoms: _342  and  _344
REMARK  136  A    between atoms: _344  and  _345
REMARK  137  A    between atoms: _348  and  _350
REMARK  138  A    between atoms: _350  and  _351
REMARK  139  A    between atoms: _350  and  _353
REMARK  140  A    between atoms: _353  and  _354
REMARK  141  A    between atoms: _357  and  _359
REMARK  142  A    between atoms: _359  and  _360
REMARK  143  A    between atoms: _359  and  _362
REMARK  144  A    between atoms: _362  and  _363
REMARK  145  A    between atoms: _363  and  _364
REMARK  146  A    between atoms: _367  and  _369
REMARK  147  A    between atoms: _369  and  _370
REMARK  148  A    between atoms: _369  and  _372
REMARK  149  A    between atoms: _372  and  _373
REMARK  150  A    between atoms: _378  and  _380
REMARK  151  A    between atoms: _380  and  _381
REMARK  152  A    between atoms: _383  and  _385
REMARK  153  A    between atoms: _385  and  _386
REMARK  154  A    between atoms: _385  and  _388
REMARK  155  A    between atoms: _391  and  _393
REMARK  156  A    between atoms: _393  and  _394
REMARK  157  A    between atoms: _397  and  _399
REMARK  158  A    between atoms: _399  and  _400
REMARK  159  A    between atoms: _399  and  _402
REMARK  160  A    between atoms: _402  and  _403
REMARK  161  A    between atoms: _408  and  _410
REMARK  162  A    between atoms: _410  and  _411
REMARK  163  A    between atoms: _410  and  _413
REMARK  164  A    between atoms: _413  and  _414
REMARK  165  A    between atoms: _414  and  _415
REMARK  166  A    between atoms: _415  and  _416
REMARK  167  A    between atoms: _416  and  _417
REMARK  168  A    between atoms: _421  and  _423
REMARK  169  A    between atoms: _423  and  _424
REMARK  170  A    between atoms: _423  and  _426
REMARK  171  A    between atoms: _426  and  _427
REMARK  172  A    between atoms: _430  and  _432
REMARK  173  A    between atoms: _432  and  _433
REMARK  174  A    between atoms: _432  and  _435
REMARK  175  A    between atoms: _435  and  _436
REMARK  176  A    between atoms: _441  and  _443
REMARK  177  A    between atoms: _443  and  _444
REMARK  178  A    between atoms: _446  and  _448
REMARK  179  A    between atoms: _448  and  _449
REMARK  180  A    between atoms: _448  and  _451
REMARK  181  A    between atoms: _451  and  _452
REMARK  182  A    between atoms: _452  and  _453
REMARK  183  A    between atoms: _453  and  _454
REMARK  184  A    between atoms: _454  and  _455
REMARK  185  A    between atoms: _459  and  _461
REMARK  186  A    between atoms: _461  and  _462
REMARK  187  A    between atoms: _461  and  _464
REMARK  188  A    between atoms: _464  and  _465
REMARK  189  A    between atoms: _465  and  _466
REMARK  190  A    between atoms: _466  and  _467
REMARK  191  A    between atoms: _476  and  _478
REMARK  192  A    between atoms: _478  and  _479
REMARK  193  A    between atoms: _478  and  _481
REMARK  194  A    between atoms: _481  and  _482
REMARK  195  A    between atoms: _487  and  _488
REMARK  196  A    between atoms: _490  and  _492
REMARK  197  A    between atoms: _492  and  _493
REMARK  198  A    between atoms: _492  and  _495
REMARK  199  A    between atoms: _495  and  _496
REMARK  200  A    between atoms: _496  and  _497
REMARK  201  A    between atoms: _497  and  _498
REMARK  202  A    between atoms: _498  and  _499
REMARK  203  A    between atoms: _503  and  _505
REMARK  204  A    between atoms: _505  and  _506
REMARK  205  A    between atoms: _505  and  _508
REMARK  206  A    between atoms: _508  and  _509
REMARK  207  A    between atoms: _511  and  _513
REMARK  208  A    between atoms: _513  and  _514
REMARK  209  A    between atoms: _513  and  _516
REMARK  210  A    between atoms: _516  and  _517
REMARK  211  A    between atoms: _520  and  _522
REMARK  212  A    between atoms: _522  and  _523
REMARK  213  A    between atoms: _522  and  _525
REMARK  214  A    between atoms: _525  and  _526
REMARK  215  A    between atoms: _526  and  _527
REMARK  216  A    between atoms: _530  and  _532
REMARK  217  A    between atoms: _532  and  _533
REMARK  218  A    between atoms: _536  and  _538
REMARK  219  A    between atoms: _538  and  _539
REMARK  220  A    between atoms: _538  and  _541
REMARK  221  A    between atoms: _541  and  _542
REMARK  222  A    between atoms: _544  and  _546
REMARK  223  A    between atoms: _546  and  _547
REMARK  224  A    between atoms: _549  and  _551
REMARK  225  A    between atoms: _551  and  _552
REMARK  226  A    between atoms: _551  and  _554
REMARK  227  A    between atoms: _554  and  _555
REMARK  228  A    between atoms: _558  and  _560
REMARK  229  A    between atoms: _560  and  _561
REMARK  230  A    between atoms: _563  and  _565
REMARK  231  A    between atoms: _565  and  _566
REMARK  232  A    between atoms: _565  and  _568
REMARK  233  A    between atoms: _568  and  _569
REMARK  234  A    between atoms: _574  and  _576
REMARK  235  A    between atoms: _576  and  _577
REMARK  236  A    between atoms: _576  and  _579
REMARK  237  A    between atoms: _579  and  _580
REMARK  238  A    between atoms: _580  and  _581
REMARK  239  A    between atoms: _588  and  _589
REMARK  240  A    between atoms: _589  and  _605
REMARK  241  A    between atoms: _590  and  _592
REMARK  242  A    between atoms: _592  and  _593
REMARK  243  A    between atoms: _593  and  _594
REMARK  244  A    between atoms: _598  and  _600
REMARK  245  A    between atoms: _600  and  _601
REMARK  246  A    between atoms: _600  and  _608
REMARK  247  A    between atoms: _601  and  _602
REMARK  248  A    between atoms: _602  and  _603
REMARK  249  A    between atoms: _603  and  _604
REMARK  250  A    between atoms: _604  and  _605
REMARK  251  A    between atoms: _610  and  _612
REMARK  252  A    between atoms: _612  and  _613
REMARK  253  A    between atoms: _612  and  _615
REMARK  254  A    between atoms: _615  and  _616
REMARK  255  A    between atoms: _619  and  _621
REMARK  256  A    between atoms: _621  and  _622
REMARK  257  A    between atoms: _624  and  _626
REMARK  258  A    between atoms: _626  and  _627
REMARK  259  A    between atoms: _630  and  _632
REMARK  260  A    between atoms: _632  and  _633
REMARK  261  A    between atoms: _632  and  _635
REMARK  262  A    between atoms: _635  and  _636
REMARK  263  A    between atoms: _641  and  _642
REMARK                            x       y       z     vdW  Elec       q    Type
REMARK                         _______ _______ _______ _____ _____    ______ ____
ROOT
ATOM      1  O   HOH     1      36.211  24.956  24.198  0.00  0.00    +0.000 OA
ENDROOT
TORSDOF 0
REMARK  Name = ../refined-set-2016/2qrg/2qrg_pocket.pdb
REMARK  263 active torsions:
REMARK  status: ('A' for Active; 'I' for Inactive)
REMARK    1  A    between atoms: _1  and  _3
REMARK    2  A    between atoms: _3  and  _4
REMARK    3  A    between atoms: _3  and  _6
REMARK    4  A    between atoms: _6  and  _7
REMARK    5  A    between atoms: _12  and  _13
REMARK    6  A    between atoms: _15  and  _17
REMARK    7  A    between atoms: _17  and  _18
REMARK    8  A    between atoms: _17  and  _20
REMARK    9  A    between atoms: _20  and  _21
REMARK   10  A    between atoms: _24  and  _26
REMARK   11  A    between atoms: _26  and  _27
REMARK   12  A    between atoms: _26  and  _29
REMARK   13  A    between atoms: _29  and  _30
REMARK   14  A    between atoms: _30  and  _31
REMARK   15  A    between atoms: _34  and  _36
REMARK   16  A    between atoms: _36  and  _37
REMARK   17  A    between atoms: _36  and  _39
REMARK   18  A    between atoms: _39  and  _40
REMARK   19  A    between atoms: _45  and  _47
REMARK   20  A    between atoms: _47  and  _48
REMARK   21  A    between atoms: _50  and  _52
REMARK   22  A    between atoms: _52  and  _53
REMARK   23  A    between atoms: _55  and  _57
REMARK   24  A    between atoms: _57  and  _58
REMARK   25  A    between atoms: _57  and  _60
REMARK   26  A    between atoms: _60  and  _61
REMARK   27  A    between atoms: _64  and  _66
REMARK   28  A    between atoms: _66  and  _67
REMARK   29  A    between atoms: _69  and  _71
REMARK   30  A    between atoms: _71  and  _72
REMARK   31  A    between atoms: _71  and  _74
REMARK   32  A    between atoms: _74  and  _75
REMARK   33  A    between atoms: _75  and  _76
REMARK   34  A    between atoms: _76  and  _77
REMARK   35  A    between atoms: _86  and  _88
REMARK   36  A    between atoms: _88  and  _89
REMARK   37  A    between atoms: _88  and  _91
REMARK   38  A    between atoms: _91  and  _92
REMARK   39  A    between atoms: _95  and  _97
REMARK   40  A    between atoms: _97  and  _98
REMARK   41  A    between atoms: _101  and  _103
REMARK   42  A    between atoms: _103  and  _104
REMARK   43  A    between atoms: _103  and  _106
REMARK   44  A    between atoms: _106  and  _107
REMARK   45  A    between atoms: _113  and  _115
REMARK   46  A    between atoms: _115  and  _116
REMARK   47  A    between atoms: _115  and  _118
REMARK   48  A    between atoms: _118  and  _119
REMARK   49  A    between atoms: _122  and  _124
REMARK   50  A    between atoms: _124  and  _125
REMARK   51  A    between atoms: _124  and  _127
REMARK   52  A    between atoms: _127  and  _128
REMARK   53  A    between atoms: _133  and  _134
REMARK   54  A    between atoms: _137  and  _138
REMARK   55  A    between atoms: _143  and  _145
REMARK   56  A    between atoms: _145  and  _146
REMARK   57  A    between atoms: _145  and  _148
REMARK   58  A    between atoms: _148  and  _149
REMARK   59  A    between atoms: _154  and  _156
REMARK   60  A    between atoms: _156  and  _157
REMARK   61  A    between atoms: _156  and  _159
REMARK   62  A    between atoms: _159  and  _160
REMARK   63  A    between atoms: _163  and  _165
REMARK   64  A    between atoms: _165  and  _166
REMARK   65  A    between atoms: _165  and  _168
REMARK   66  A    between atoms: _168  and  _169
REMARK   67  A    between atoms: _174  and  _176
REMARK   68  A    between atoms: _176  and  _177
REMARK   69  A    between atoms: _176  and  _179
REMARK   70  A    between atoms: _179  and  _180
REMARK   71  A    between atoms: _186  and  _188
REMARK   72  A    between atoms: _188  and  _189
REMARK   73  A    between atoms: _188  and  _191
REMARK   74  A    between atoms: _191  and  _192
REMARK   75  A    between atoms: _198  and  _200
REMARK   76  A    between atoms: _200  and  _201
REMARK   77  A    between atoms: _200  and  _203
REMARK   78  A    between atoms: _203  and  _204
REMARK   79  A    between atoms: _204  and  _205
REMARK   80  A    between atoms: _208  and  _210
REMARK   81  A    between atoms: _210  and  _211
REMARK   82  A    between atoms: _210  and  _213
REMARK   83  A    between atoms: _213  and  _214
REMARK   84  A    between atoms: _214  and  _215
REMARK   85  A    between atoms: _215  and  _216
REMARK   86  A    between atoms: _225  and  _227
REMARK   87  A    between atoms: _227  and  _228
REMARK   88  A    between atoms: _227  and  _230
REMARK   89  A    between atoms: _230  and  _231
REMARK   90  A    between atoms: _231  and  _232
REMARK   91  A    between atoms: _235  and  _237
REMARK   92  A    between atoms: _237  and  _238
REMARK   93  A    between atoms: _237  and  _240
REMARK   94  A    between atoms: _240  and  _241
REMARK   95  A    between atoms: _246  and  _248
REMARK   96  A    between atoms: _248  and  _249
REMARK   97  A    between atoms: _248  and  _251
REMARK   98  A    between atoms: _251  and  _252
REMARK   99  A    between atoms: _255  and  _257
REMARK  100  A    between atoms: _257  and  _258
REMARK  101  A    between atoms: _257  and  _260
REMARK  102  A    between atoms: _260  and  _261
REMARK  103  A    between atoms: _264  and  _266
REMARK  104  A    between atoms: _266  and  _267
REMARK  105  A    between atoms: _266  and  _269
REMARK  106  A    between atoms: _269  and  _270
REMARK  107  A    between atoms: _275  and  _277
REMARK  108  A    between atoms: _277  and  _278
REMARK  109  A    between atoms: _277  and  _280
REMARK  110  A    between atoms: _280  and  _281
REMARK  111  A    between atoms: _284  and  _286
REMARK  112  A    between atoms: _286  and  _287
REMARK  113  A    between atoms: _286  and  _289
REMARK  114  A    between atoms: _289  and  _290
REMARK  115  A    between atoms: _295  and  _297
REMARK  116  A    between atoms: _297  and  _298
REMARK  117  A    between atoms: _297  and  _300
REMARK  118  A    between atoms: _300  and  _301
REMARK  119  A    between atoms: _306  and  _308
REMARK  120  A    between atoms: _308  and  _309
REMARK  121  A    between atoms: _308  and  _311
REMARK  122  A    between atoms: _311  and  _312
REMARK  123  A    between atoms: _315  and  _317
REMARK  124  A    between atoms: _317  and  _318
REMARK  125  A    between atoms: _317  and  _320
REMARK  126  A    between atoms: _323  and  _325
REMARK  127  A    between atoms: _325  and  _326
REMARK  128  A    between atoms: _325  and  _328
REMARK  129  A    between atoms: _328  and  _329
REMARK  130  A    between atoms: _332  and  _334
REMARK  131  A    between atoms: _334  and  _335
REMARK  132  A    between atoms: _334  and  _337
REMARK  133  A    between atoms: _337  and  _338
REMARK  134  A    between atoms: _338  and  _339
REMARK  135  A    between atoms: _342  and  _344
REMARK  136  A    between atoms: _344  and  _345
REMARK  137  A    between atoms: _348  and  _350
REMARK  138  A    between atoms: _350  and  _351
REMARK  139  A    between atoms: _350  and  _353
REMARK  140  A    between atoms: _353  and  _354
REMARK  141  A    between atoms: _357  and  _359
REMARK  142  A    between atoms: _359  and  _360
REMARK  143  A    between atoms: _359  and  _362
REMARK  144  A    between atoms: _362  and  _363
REMARK  145  A    between atoms: _363  and  _364
REMARK  146  A    between atoms: _367  and  _369
REMARK  147  A    between atoms: _369  and  _370
REMARK  148  A    between atoms: _369  and  _372
REMARK  149  A    between atoms: _372  and  _373
REMARK  150  A    between atoms: _378  and  _380
REMARK  151  A    between atoms: _380  and  _381
REMARK  152  A    between atoms: _383  and  _385
REMARK  153  A    between atoms: _385  and  _386
REMARK  154  A    between atoms: _385  and  _388
REMARK  155  A    between atoms: _391  and  _393
REMARK  156  A    between atoms: _393  and  _394
REMARK  157  A    between atoms: _397  and  _399
REMARK  158  A    between atoms: _399  and  _400
REMARK  159  A    between atoms: _399  and  _402
REMARK  160  A    between atoms: _402  and  _403
REMARK  161  A    between atoms: _408  and  _410
REMARK  162  A    between atoms: _410  and  _411
REMARK  163  A    between atoms: _410  and  _413
REMARK  164  A    between atoms: _413  and  _414
REMARK  165  A    between atoms: _414  and  _415
REMARK  166  A    between atoms: _415  and  _416
REMARK  167  A    between atoms: _416  and  _417
REMARK  168  A    between atoms: _421  and  _423
REMARK  169  A    between atoms: _423  and  _424
REMARK  170  A    between atoms: _423  and  _426
REMARK  171  A    between atoms: _426  and  _427
REMARK  172  A    between atoms: _430  and  _432
REMARK  173  A    between atoms: _432  and  _433
REMARK  174  A    between atoms: _432  and  _435
REMARK  175  A    between atoms: _435  and  _436
REMARK  176  A    between atoms: _441  and  _443
REMARK  177  A    between atoms: _443  and  _444
REMARK  178  A    between atoms: _446  and  _448
REMARK  179  A    between atoms: _448  and  _449
REMARK  180  A    between atoms: _448  and  _451
REMARK  181  A    between atoms: _451  and  _452
REMARK  182  A    between atoms: _452  and  _453
REMARK  183  A    between atoms: _453  and  _454
REMARK  184  A    between atoms: _454  and  _455
REMARK  185  A    between atoms: _459  and  _461
REMARK  186  A    between atoms: _461  and  _462
REMARK  187  A    between atoms: _461  and  _464
REMARK  188  A    between atoms: _464  and  _465
REMARK  189  A    between atoms: _465  and  _466
REMARK  190  A    between atoms: _466  and  _467
REMARK  191  A    between atoms: _476  and  _478
REMARK  192  A    between atoms: _478  and  _479
REMARK  193  A    between atoms: _478  and  _481
REMARK  194  A    between atoms: _481  and  _482
REMARK  195  A    between atoms: _487  and  _488
REMARK  196  A    between atoms: _490  and  _492
REMARK  197  A    between atoms: _492  and  _493
REMARK  198  A    between atoms: _492  and  _495
REMARK  199  A    between atoms: _495  and  _496
REMARK  200  A    between atoms: _496  and  _497
REMARK  201  A    between atoms: _497  and  _498
REMARK  202  A    between atoms: _498  and  _499
REMARK  203  A    between atoms: _503  and  _505
REMARK  204  A    between atoms: _505  and  _506
REMARK  205  A    between atoms: _505  and  _508
REMARK  206  A    between atoms: _508  and  _509
REMARK  207  A    between atoms: _511  and  _513
REMARK  208  A    between atoms: _513  and  _514
REMARK  209  A    between atoms: _513  and  _516
REMARK  210  A    between atoms: _516  and  _517
REMARK  211  A    between atoms: _520  and  _522
REMARK  212  A    between atoms: _522  and  _523
REMARK  213  A    between atoms: _522  and  _525
REMARK  214  A    between atoms: _525  and  _526
REMARK  215  A    between atoms: _526  and  _527
REMARK  216  A    between atoms: _530  and  _532
REMARK  217  A    between atoms: _532  and  _533
REMARK  218  A    between atoms: _536  and  _538
REMARK  219  A    between atoms: _538  and  _539
REMARK  220  A    between atoms: _538  and  _541
REMARK  221  A    between atoms: _541  and  _542
REMARK  222  A    between atoms: _544  and  _546
REMARK  223  A    between atoms: _546  and  _547
REMARK  224  A    between atoms: _549  and  _551
REMARK  225  A    between atoms: _551  and  _552
REMARK  226  A    between atoms: _551  and  _554
REMARK  227  A    between atoms: _554  and  _555
REMARK  228  A    between atoms: _558  and  _560
REMARK  229  A    between atoms: _560  and  _561
REMARK  230  A    between atoms: _563  and  _565
REMARK  231  A    between atoms: _565  and  _566
REMARK  232  A    between atoms: _565  and  _568
REMARK  233  A    between atoms: _568  and  _569
REMARK  234  A    between atoms: _574  and  _576
REMARK  235  A    between atoms: _576  and  _577
REMARK  236  A    between atoms: _576  and  _579
REMARK  237  A    between atoms: _579  and  _580
REMARK  238  A    between atoms: _580  and  _581
REMARK  239  A    between atoms: _588  and  _589
REMARK  240  A    between atoms: _589  and  _605
REMARK  241  A    between atoms: _590  and  _592
REMARK  242  A    between atoms: _592  and  _593
REMARK  243  A    between atoms: _593  and  _594
REMARK  244  A    between atoms: _598  and  _600
REMARK  245  A    between atoms: _600  and  _601
REMARK  246  A    between atoms: _600  and  _608
REMARK  247  A    between atoms: _601  and  _602
REMARK  248  A    between atoms: _602  and  _603
REMARK  249  A    between atoms: _603  and  _604
REMARK  250  A    between atoms: _604  and  _605
REMARK  251  A    between atoms: _610  and  _612
REMARK  252  A    between atoms: _612  and  _613
REMARK  253  A    between atoms: _612  and  _615
REMARK  254  A    between atoms: _615  and  _616
REMARK  255  A    between atoms: _619  and  _621
REMARK  256  A    between atoms: _621  and  _622
REMARK  257  A    between atoms: _624  and  _626
REMARK  258  A    between atoms: _626  and  _627
REMARK  259  A    between atoms: _630  and  _632
REMARK  260  A    between atoms: _632  and  _633
REMARK  261  A    between atoms: _632  and  _635
REMARK  262  A    between atoms: _635  and  _636
REMARK  263  A    between atoms: _641  and  _642
REMARK                            x       y       z     vdW  Elec       q    Type
REMARK                         _______ _______ _______ _____ _____    ______ ____
ROOT
ATOM      1  O   HOH     1      38.928  22.934  19.808  0.00  0.00    +0.000 OA
ENDROOT
TORSDOF 0
REMARK  Name = ../refined-set-2016/2qrg/2qrg_pocket.pdb
REMARK  263 active torsions:
REMARK  status: ('A' for Active; 'I' for Inactive)
REMARK    1  A    between atoms: _1  and  _3
REMARK    2  A    between atoms: _3  and  _4
REMARK    3  A    between atoms: _3  and  _6
REMARK    4  A    between atoms: _6  and  _7
REMARK    5  A    between atoms: _12  and  _13
REMARK    6  A    between atoms: _15  and  _17
REMARK    7  A    between atoms: _17  and  _18
REMARK    8  A    between atoms: _17  and  _20
REMARK    9  A    between atoms: _20  and  _21
REMARK   10  A    between atoms: _24  and  _26
REMARK   11  A    between atoms: _26  and  _27
REMARK   12  A    between atoms: _26  and  _29
REMARK   13  A    between atoms: _29  and  _30
REMARK   14  A    between atoms: _30  and  _31
REMARK   15  A    between atoms: _34  and  _36
REMARK   16  A    between atoms: _36  and  _37
REMARK   17  A    between atoms: _36  and  _39
REMARK   18  A    between atoms: _39  and  _40
REMARK   19  A    between atoms: _45  and  _47
REMARK   20  A    between atoms: _47  and  _48
REMARK   21  A    between atoms: _50  and  _52
REMARK   22  A    between atoms: _52  and  _53
REMARK   23  A    between atoms: _55  and  _57
REMARK   24  A    between atoms: _57  and  _58
REMARK   25  A    between atoms: _57  and  _60
REMARK   26  A    between atoms: _60  and  _61
REMARK   27  A    between atoms: _64  and  _66
REMARK   28  A    between atoms: _66  and  _67
REMARK   29  A    between atoms: _69  and  _71
REMARK   30  A    between atoms: _71  and  _72
REMARK   31  A    between atoms: _71  and  _74
REMARK   32  A    between atoms: _74  and  _75
REMARK   33  A    between atoms: _75  and  _76
REMARK   34  A    between atoms: _76  and  _77
REMARK   35  A    between atoms: _86  and  _88
REMARK   36  A    between atoms: _88  and  _89
REMARK   37  A    between atoms: _88  and  _91
REMARK   38  A    between atoms: _91  and  _92
REMARK   39  A    between atoms: _95  and  _97
REMARK   40  A    between atoms: _97  and  _98
REMARK   41  A    between atoms: _101  and  _103
REMARK   42  A    between atoms: _103  and  _104
REMARK   43  A    between atoms: _103  and  _106
REMARK   44  A    between atoms: _106  and  _107
REMARK   45  A    between atoms: _113  and  _115
REMARK   46  A    between atoms: _115  and  _116
REMARK   47  A    between atoms: _115  and  _118
REMARK   48  A    between atoms: _118  and  _119
REMARK   49  A    between atoms: _122  and  _124
REMARK   50  A    between atoms: _124  and  _125
REMARK   51  A    between atoms: _124  and  _127
REMARK   52  A    between atoms: _127  and  _128
REMARK   53  A    between atoms: _133  and  _134
REMARK   54  A    between atoms: _137  and  _138
REMARK   55  A    between atoms: _143  and  _145
REMARK   56  A    between atoms: _145  and  _146
REMARK   57  A    between atoms: _145  and  _148
REMARK   58  A    between atoms: _148  and  _149
REMARK   59  A    between atoms: _154  and  _156
REMARK   60  A    between atoms: _156  and  _157
REMARK   61  A    between atoms: _156  and  _159
REMARK   62  A    between atoms: _159  and  _160
REMARK   63  A    between atoms: _163  and  _165
REMARK   64  A    between atoms: _165  and  _166
REMARK   65  A    between atoms: _165  and  _168
REMARK   66  A    between atoms: _168  and  _169
REMARK   67  A    between atoms: _174  and  _176
REMARK   68  A    between atoms: _176  and  _177
REMARK   69  A    between atoms: _176  and  _179
REMARK   70  A    between atoms: _179  and  _180
REMARK   71  A    between atoms: _186  and  _188
REMARK   72  A    between atoms: _188  and  _189
REMARK   73  A    between atoms: _188  and  _191
REMARK   74  A    between atoms: _191  and  _192
REMARK   75  A    between atoms: _198  and  _200
REMARK   76  A    between atoms: _200  and  _201
REMARK   77  A    between atoms: _200  and  _203
REMARK   78  A    between atoms: _203  and  _204
REMARK   79  A    between atoms: _204  and  _205
REMARK   80  A    between atoms: _208  and  _210
REMARK   81  A    between atoms: _210  and  _211
REMARK   82  A    between atoms: _210  and  _213
REMARK   83  A    between atoms: _213  and  _214
REMARK   84  A    between atoms: _214  and  _215
REMARK   85  A    between atoms: _215  and  _216
REMARK   86  A    between atoms: _225  and  _227
REMARK   87  A    between atoms: _227  and  _228
REMARK   88  A    between atoms: _227  and  _230
REMARK   89  A    between atoms: _230  and  _231
REMARK   90  A    between atoms: _231  and  _232
REMARK   91  A    between atoms: _235  and  _237
REMARK   92  A    between atoms: _237  and  _238
REMARK   93  A    between atoms: _237  and  _240
REMARK   94  A    between atoms: _240  and  _241
REMARK   95  A    between atoms: _246  and  _248
REMARK   96  A    between atoms: _248  and  _249
REMARK   97  A    between atoms: _248  and  _251
REMARK   98  A    between atoms: _251  and  _252
REMARK   99  A    between atoms: _255  and  _257
REMARK  100  A    between atoms: _257  and  _258
REMARK  101  A    between atoms: _257  and  _260
REMARK  102  A    between atoms: _260  and  _261
REMARK  103  A    between atoms: _264  and  _266
REMARK  104  A    between atoms: _266  and  _267
REMARK  105  A    between atoms: _266  and  _269
REMARK  106  A    between atoms: _269  and  _270
REMARK  107  A    between atoms: _275  and  _277
REMARK  108  A    between atoms: _277  and  _278
REMARK  109  A    between atoms: _277  and  _280
REMARK  110  A    between atoms: _280  and  _281
REMARK  111  A    between atoms: _284  and  _286
REMARK  112  A    between atoms: _286  and  _287
REMARK  113  A    between atoms: _286  and  _289
REMARK  114  A    between atoms: _289  and  _290
REMARK  115  A    between atoms: _295  and  _297
REMARK  116  A    between atoms: _297  and  _298
REMARK  117  A    between atoms: _297  and  _300
REMARK  118  A    between atoms: _300  and  _301
REMARK  119  A    between atoms: _306  and  _308
REMARK  120  A    between atoms: _308  and  _309
REMARK  121  A    between atoms: _308  and  _311
REMARK  122  A    between atoms: _311  and  _312
REMARK  123  A    between atoms: _315  and  _317
REMARK  124  A    between atoms: _317  and  _318
REMARK  125  A    between atoms: _317  and  _320
REMARK  126  A    between atoms: _323  and  _325
REMARK  127  A    between atoms: _325  and  _326
REMARK  128  A    between atoms: _325  and  _328
REMARK  129  A    between atoms: _328  and  _329
REMARK  130  A    between atoms: _332  and  _334
REMARK  131  A    between atoms: _334  and  _335
REMARK  132  A    between atoms: _334  and  _337
REMARK  133  A    between atoms: _337  and  _338
REMARK  134  A    between atoms: _338  and  _339
REMARK  135  A    between atoms: _342  and  _344
REMARK  136  A    between atoms: _344  and  _345
REMARK  137  A    between atoms: _348  and  _350
REMARK  138  A    between atoms: _350  and  _351
REMARK  139  A    between atoms: _350  and  _353
REMARK  140  A    between atoms: _353  and  _354
REMARK  141  A    between atoms: _357  and  _359
REMARK  142  A    between atoms: _359  and  _360
REMARK  143  A    between atoms: _359  and  _362
REMARK  144  A    between atoms: _362  and  _363
REMARK  145  A    between atoms: _363  and  _364
REMARK  146  A    between atoms: _367  and  _369
REMARK  147  A    between atoms: _369  and  _370
REMARK  148  A    between atoms: _369  and  _372
REMARK  149  A    between atoms: _372  and  _373
REMARK  150  A    between atoms: _378  and  _380
REMARK  151  A    between atoms: _380  and  _381
REMARK  152  A    between atoms: _383  and  _385
REMARK  153  A    between atoms: _385  and  _386
REMARK  154  A    between atoms: _385  and  _388
REMARK  155  A    between atoms: _391  and  _393
REMARK  156  A    between atoms: _393  and  _394
REMARK  157  A    between atoms: _397  and  _399
REMARK  158  A    between atoms: _399  and  _400
REMARK  159  A    between atoms: _399  and  _402
REMARK  160  A    between atoms: _402  and  _403
REMARK  161  A    between atoms: _408  and  _410
REMARK  162  A    between atoms: _410  and  _411
REMARK  163  A    between atoms: _410  and  _413
REMARK  164  A    between atoms: _413  and  _414
REMARK  165  A    between atoms: _414  and  _415
REMARK  166  A    between atoms: _415  and  _416
REMARK  167  A    between atoms: _416  and  _417
REMARK  168  A    between atoms: _421  and  _423
REMARK  169  A    between atoms: _423  and  _424
REMARK  170  A    between atoms: _423  and  _426
REMARK  171  A    between atoms: _426  and  _427
REMARK  172  A    between atoms: _430  and  _432
REMARK  173  A    between atoms: _432  and  _433
REMARK  174  A    between atoms: _432  and  _435
REMARK  175  A    between atoms: _435  and  _436
REMARK  176  A    between atoms: _441  and  _443
REMARK  177  A    between atoms: _443  and  _444
REMARK  178  A    between atoms: _446  and  _448
REMARK  179  A    between atoms: _448  and  _449
REMARK  180  A    between atoms: _448  and  _451
REMARK  181  A    between atoms: _451  and  _452
REMARK  182  A    between atoms: _452  and  _453
REMARK  183  A    between atoms: _453  and  _454
REMARK  184  A    between atoms: _454  and  _455
REMARK  185  A    between atoms: _459  and  _461
REMARK  186  A    between atoms: _461  and  _462
REMARK  187  A    between atoms: _461  and  _464
REMARK  188  A    between atoms: _464  and  _465
REMARK  189  A    between atoms: _465  and  _466
REMARK  190  A    between atoms: _466  and  _467
REMARK  191  A    between atoms: _476  and  _478
REMARK  192  A    between atoms: _478  and  _479
REMARK  193  A    between atoms: _478  and  _481
REMARK  194  A    between atoms: _481  and  _482
REMARK  195  A    between atoms: _487  and  _488
REMARK  196  A    between atoms: _490  and  _492
REMARK  197  A    between atoms: _492  and  _493
REMARK  198  A    between atoms: _492  and  _495
REMARK  199  A    between atoms: _495  and  _496
REMARK  200  A    between atoms: _496  and  _497
REMARK  201  A    between atoms: _497  and  _498
REMARK  202  A    between atoms: _498  and  _499
REMARK  203  A    between atoms: _503  and  _505
REMARK  204  A    between atoms: _505  and  _506
REMARK  205  A    between atoms: _505  and  _508
REMARK  206  A    between atoms: _508  and  _509
REMARK  207  A    between atoms: _511  and  _513
REMARK  208  A    between atoms: _513  and  _514
REMARK  209  A    between atoms: _513  and  _516
REMARK  210  A    between atoms: _516  and  _517
REMARK  211  A    between atoms: _520  and  _522
REMARK  212  A    between atoms: _522  and  _523
REMARK  213  A    between atoms: _522  and  _525
REMARK  214  A    between atoms: _525  and  _526
REMARK  215  A    between atoms: _526  and  _527
REMARK  216  A    between atoms: _530  and  _532
REMARK  217  A    between atoms: _532  and  _533
REMARK  218  A    between atoms: _536  and  _538
REMARK  219  A    between atoms: _538  and  _539
REMARK  220  A    between atoms: _538  and  _541
REMARK  221  A    between atoms: _541  and  _542
REMARK  222  A    between atoms: _544  and  _546
REMARK  223  A    between atoms: _546  and  _547
REMARK  224  A    between atoms: _549  and  _551
REMARK  225  A    between atoms: _551  and  _552
REMARK  226  A    between atoms: _551  and  _554
REMARK  227  A    between atoms: _554  and  _555
REMARK  228  A    between atoms: _558  and  _560
REMARK  229  A    between atoms: _560  and  _561
REMARK  230  A    between atoms: _563  and  _565
REMARK  231  A    between atoms: _565  and  _566
REMARK  232  A    between atoms: _565  and  _568
REMARK  233  A    between atoms: _568  and  _569
REMARK  234  A    between atoms: _574  and  _576
REMARK  235  A    between atoms: _576  and  _577
REMARK  236  A    between atoms: _576  and  _579
REMARK  237  A    between atoms: _579  and  _580
REMARK  238  A    between atoms: _580  and  _581
REMARK  239  A    between atoms: _588  and  _589
REMARK  240  A    between atoms: _589  and  _605
REMARK  241  A    between atoms: _590  and  _592
REMARK  242  A    between atoms: _592  and  _593
REMARK  243  A    between atoms: _593  and  _594
REMARK  244  A    between atoms: _598  and  _600
REMARK  245  A    between atoms: _600  and  _601
REMARK  246  A    between atoms: _600  and  _608
REMARK  247  A    between atoms: _601  and  _602
REMARK  248  A    between atoms: _602  and  _603
REMARK  249  A    between atoms: _603  and  _604
REMARK  250  A    between atoms: _604  and  _605
REMARK  251  A    between atoms: _610  and  _612
REMARK  252  A    between atoms: _612  and  _613
REMARK  253  A    between atoms: _612  and  _615
REMARK  254  A    between atoms: _615  and  _616
REMARK  255  A    between atoms: _619  and  _621
REMARK  256  A    between atoms: _621  and  _622
REMARK  257  A    between atoms: _624  and  _626
REMARK  258  A    between atoms: _626  and  _627
REMARK  259  A    between atoms: _630  and  _632
REMARK  260  A    between atoms: _632  and  _633
REMARK  261  A    between atoms: _632  and  _635
REMARK  262  A    between atoms: _635  and  _636
REMARK  263  A    between atoms: _641  and  _642
REMARK                            x       y       z     vdW  Elec       q    Type
REMARK                         _______ _______ _______ _____ _____    ______ ____
ROOT
ATOM      1  O   HOH     1      43.161  20.687  30.233  0.00  0.00    +0.000 OA
ENDROOT
TORSDOF 0
REMARK  Name = ../refined-set-2016/2qrg/2qrg_pocket.pdb
REMARK  263 active torsions:
REMARK  status: ('A' for Active; 'I' for Inactive)
REMARK    1  A    between atoms: _1  and  _3
REMARK    2  A    between atoms: _3  and  _4
REMARK    3  A    between atoms: _3  and  _6
REMARK    4  A    between atoms: _6  and  _7
REMARK    5  A    between atoms: _12  and  _13
REMARK    6  A    between atoms: _15  and  _17
REMARK    7  A    between atoms: _17  and  _18
REMARK    8  A    between atoms: _17  and  _20
REMARK    9  A    between atoms: _20  and  _21
REMARK   10  A    between atoms: _24  and  _26
REMARK   11  A    between atoms: _26  and  _27
REMARK   12  A    between atoms: _26  and  _29
REMARK   13  A    between atoms: _29  and  _30
REMARK   14  A    between atoms: _30  and  _31
REMARK   15  A    between atoms: _34  and  _36
REMARK   16  A    between atoms: _36  and  _37
REMARK   17  A    between atoms: _36  and  _39
REMARK   18  A    between atoms: _39  and  _40
REMARK   19  A    between atoms: _45  and  _47
REMARK   20  A    between atoms: _47  and  _48
REMARK   21  A    between atoms: _50  and  _52
REMARK   22  A    between atoms: _52  and  _53
REMARK   23  A    between atoms: _55  and  _57
REMARK   24  A    between atoms: _57  and  _58
REMARK   25  A    between atoms: _57  and  _60
REMARK   26  A    between atoms: _60  and  _61
REMARK   27  A    between atoms: _64  and  _66
REMARK   28  A    between atoms: _66  and  _67
REMARK   29  A    between atoms: _69  and  _71
REMARK   30  A    between atoms: _71  and  _72
REMARK   31  A    between atoms: _71  and  _74
REMARK   32  A    between atoms: _74  and  _75
REMARK   33  A    between atoms: _75  and  _76
REMARK   34  A    between atoms: _76  and  _77
REMARK   35  A    between atoms: _86  and  _88
REMARK   36  A    between atoms: _88  and  _89
REMARK   37  A    between atoms: _88  and  _91
REMARK   38  A    between atoms: _91  and  _92
REMARK   39  A    between atoms: _95  and  _97
REMARK   40  A    between atoms: _97  and  _98
REMARK   41  A    between atoms: _101  and  _103
REMARK   42  A    between atoms: _103  and  _104
REMARK   43  A    between atoms: _103  and  _106
REMARK   44  A    between atoms: _106  and  _107
REMARK   45  A    between atoms: _113  and  _115
REMARK   46  A    between atoms: _115  and  _116
REMARK   47  A    between atoms: _115  and  _118
REMARK   48  A    between atoms: _118  and  _119
REMARK   49  A    between atoms: _122  and  _124
REMARK   50  A    between atoms: _124  and  _125
REMARK   51  A    between atoms: _124  and  _127
REMARK   52  A    between atoms: _127  and  _128
REMARK   53  A    between atoms: _133  and  _134
REMARK   54  A    between atoms: _137  and  _138
REMARK   55  A    between atoms: _143  and  _145
REMARK   56  A    between atoms: _145  and  _146
REMARK   57  A    between atoms: _145  and  _148
REMARK   58  A    between atoms: _148  and  _149
REMARK   59  A    between atoms: _154  and  _156
REMARK   60  A    between atoms: _156  and  _157
REMARK   61  A    between atoms: _156  and  _159
REMARK   62  A    between atoms: _159  and  _160
REMARK   63  A    between atoms: _163  and  _165
REMARK   64  A    between atoms: _165  and  _166
REMARK   65  A    between atoms: _165  and  _168
REMARK   66  A    between atoms: _168  and  _169
REMARK   67  A    between atoms: _174  and  _176
REMARK   68  A    between atoms: _176  and  _177
REMARK   69  A    between atoms: _176  and  _179
REMARK   70  A    between atoms: _179  and  _180
REMARK   71  A    between atoms: _186  and  _188
REMARK   72  A    between atoms: _188  and  _189
REMARK   73  A    between atoms: _188  and  _191
REMARK   74  A    between atoms: _191  and  _192
REMARK   75  A    between atoms: _198  and  _200
REMARK   76  A    between atoms: _200  and  _201
REMARK   77  A    between atoms: _200  and  _203
REMARK   78  A    between atoms: _203  and  _204
REMARK   79  A    between atoms: _204  and  _205
REMARK   80  A    between atoms: _208  and  _210
REMARK   81  A    between atoms: _210  and  _211
REMARK   82  A    between atoms: _210  and  _213
REMARK   83  A    between atoms: _213  and  _214
REMARK   84  A    between atoms: _214  and  _215
REMARK   85  A    between atoms: _215  and  _216
REMARK   86  A    between atoms: _225  and  _227
REMARK   87  A    between atoms: _227  and  _228
REMARK   88  A    between atoms: _227  and  _230
REMARK   89  A    between atoms: _230  and  _231
REMARK   90  A    between atoms: _231  and  _232
REMARK   91  A    between atoms: _235  and  _237
REMARK   92  A    between atoms: _237  and  _238
REMARK   93  A    between atoms: _237  and  _240
REMARK   94  A    between atoms: _240  and  _241
REMARK   95  A    between atoms: _246  and  _248
REMARK   96  A    between atoms: _248  and  _249
REMARK   97  A    between atoms: _248  and  _251
REMARK   98  A    between atoms: _251  and  _252
REMARK   99  A    between atoms: _255  and  _257
REMARK  100  A    between atoms: _257  and  _258
REMARK  101  A    between atoms: _257  and  _260
REMARK  102  A    between atoms: _260  and  _261
REMARK  103  A    between atoms: _264  and  _266
REMARK  104  A    between atoms: _266  and  _267
REMARK  105  A    between atoms: _266  and  _269
REMARK  106  A    between atoms: _269  and  _270
REMARK  107  A    between atoms: _275  and  _277
REMARK  108  A    between atoms: _277  and  _278
REMARK  109  A    between atoms: _277  and  _280
REMARK  110  A    between atoms: _280  and  _281
REMARK  111  A    between atoms: _284  and  _286
REMARK  112  A    between atoms: _286  and  _287
REMARK  113  A    between atoms: _286  and  _289
REMARK  114  A    between atoms: _289  and  _290
REMARK  115  A    between atoms: _295  and  _297
REMARK  116  A    between atoms: _297  and  _298
REMARK  117  A    between atoms: _297  and  _300
REMARK  118  A    between atoms: _300  and  _301
REMARK  119  A    between atoms: _306  and  _308
REMARK  120  A    between atoms: _308  and  _309
REMARK  121  A    between atoms: _308  and  _311
REMARK  122  A    between atoms: _311  and  _312
REMARK  123  A    between atoms: _315  and  _317
REMARK  124  A    between atoms: _317  and  _318
REMARK  125  A    between atoms: _317  and  _320
REMARK  126  A    between atoms: _323  and  _325
REMARK  127  A    between atoms: _325  and  _326
REMARK  128  A    between atoms: _325  and  _328
REMARK  129  A    between atoms: _328  and  _329
REMARK  130  A    between atoms: _332  and  _334
REMARK  131  A    between atoms: _334  and  _335
REMARK  132  A    between atoms: _334  and  _337
REMARK  133  A    between atoms: _337  and  _338
REMARK  134  A    between atoms: _338  and  _339
REMARK  135  A    between atoms: _342  and  _344
REMARK  136  A    between atoms: _344  and  _345
REMARK  137  A    between atoms: _348  and  _350
REMARK  138  A    between atoms: _350  and  _351
REMARK  139  A    between atoms: _350  and  _353
REMARK  140  A    between atoms: _353  and  _354
REMARK  141  A    between atoms: _357  and  _359
REMARK  142  A    between atoms: _359  and  _360
REMARK  143  A    between atoms: _359  and  _362
REMARK  144  A    between atoms: _362  and  _363
REMARK  145  A    between atoms: _363  and  _364
REMARK  146  A    between atoms: _367  and  _369
REMARK  147  A    between atoms: _369  and  _370
REMARK  148  A    between atoms: _369  and  _372
REMARK  149  A    between atoms: _372  and  _373
REMARK  150  A    between atoms: _378  and  _380
REMARK  151  A    between atoms: _380  and  _381
REMARK  152  A    between atoms: _383  and  _385
REMARK  153  A    between atoms: _385  and  _386
REMARK  154  A    between atoms: _385  and  _388
REMARK  155  A    between atoms: _391  and  _393
REMARK  156  A    between atoms: _393  and  _394
REMARK  157  A    between atoms: _397  and  _399
REMARK  158  A    between atoms: _399  and  _400
REMARK  159  A    between atoms: _399  and  _402
REMARK  160  A    between atoms: _402  and  _403
REMARK  161  A    between atoms: _408  and  _410
REMARK  162  A    between atoms: _410  and  _411
REMARK  163  A    between atoms: _410  and  _413
REMARK  164  A    between atoms: _413  and  _414
REMARK  165  A    between atoms: _414  and  _415
REMARK  166  A    between atoms: _415  and  _416
REMARK  167  A    between atoms: _416  and  _417
REMARK  168  A    between atoms: _421  and  _423
REMARK  169  A    between atoms: _423  and  _424
REMARK  170  A    between atoms: _423  and  _426
REMARK  171  A    between atoms: _426  and  _427
REMARK  172  A    between atoms: _430  and  _432
REMARK  173  A    between atoms: _432  and  _433
REMARK  174  A    between atoms: _432  and  _435
REMARK  175  A    between atoms: _435  and  _436
REMARK  176  A    between atoms: _441  and  _443
REMARK  177  A    between atoms: _443  and  _444
REMARK  178  A    between atoms: _446  and  _448
REMARK  179  A    between atoms: _448  and  _449
REMARK  180  A    between atoms: _448  and  _451
REMARK  181  A    between atoms: _451  and  _452
REMARK  182  A    between atoms: _452  and  _453
REMARK  183  A    between atoms: _453  and  _454
REMARK  184  A    between atoms: _454  and  _455
REMARK  185  A    between atoms: _459  and  _461
REMARK  186  A    between atoms: _461  and  _462
REMARK  187  A    between atoms: _461  and  _464
REMARK  188  A    between atoms: _464  and  _465
REMARK  189  A    between atoms: _465  and  _466
REMARK  190  A    between atoms: _466  and  _467
REMARK  191  A    between atoms: _476  and  _478
REMARK  192  A    between atoms: _478  and  _479
REMARK  193  A    between atoms: _478  and  _481
REMARK  194  A    between atoms: _481  and  _482
REMARK  195  A    between atoms: _487  and  _488
REMARK  196  A    between atoms: _490  and  _492
REMARK  197  A    between atoms: _492  and  _493
REMARK  198  A    between atoms: _492  and  _495
REMARK  199  A    between atoms: _495  and  _496
REMARK  200  A    between atoms: _496  and  _497
REMARK  201  A    between atoms: _497  and  _498
REMARK  202  A    between atoms: _498  and  _499
REMARK  203  A    between atoms: _503  and  _505
REMARK  204  A    between atoms: _505  and  _506
REMARK  205  A    between atoms: _505  and  _508
REMARK  206  A    between atoms: _508  and  _509
REMARK  207  A    between atoms: _511  and  _513
REMARK  208  A    between atoms: _513  and  _514
REMARK  209  A    between atoms: _513  and  _516
REMARK  210  A    between atoms: _516  and  _517
REMARK  211  A    between atoms: _520  and  _522
REMARK  212  A    between atoms: _522  and  _523
REMARK  213  A    between atoms: _522  and  _525
REMARK  214  A    between atoms: _525  and  _526
REMARK  215  A    between atoms: _526  and  _527
REMARK  216  A    between atoms: _530  and  _532
REMARK  217  A    between atoms: _532  and  _533
REMARK  218  A    between atoms: _536  and  _538
REMARK  219  A    between atoms: _538  and  _539
REMARK  220  A    between atoms: _538  and  _541
REMARK  221  A    between atoms: _541  and  _542
REMARK  222  A    between atoms: _544  and  _546
REMARK  223  A    between atoms: _546  and  _547
REMARK  224  A    between atoms: _549  and  _551
REMARK  225  A    between atoms: _551  and  _552
REMARK  226  A    between atoms: _551  and  _554
REMARK  227  A    between atoms: _554  and  _555
REMARK  228  A    between atoms: _558  and  _560
REMARK  229  A    between atoms: _560  and  _561
REMARK  230  A    between atoms: _563  and  _565
REMARK  231  A    between atoms: _565  and  _566
REMARK  232  A    between atoms: _565  and  _568
REMARK  233  A    between atoms: _568  and  _569
REMARK  234  A    between atoms: _574  and  _576
REMARK  235  A    between atoms: _576  and  _577
REMARK  236  A    between atoms: _576  and  _579
REMARK  237  A    between atoms: _579  and  _580
REMARK  238  A    between atoms: _580  and  _581
REMARK  239  A    between atoms: _588  and  _589
REMARK  240  A    between atoms: _589  and  _605
REMARK  241  A    between atoms: _590  and  _592
REMARK  242  A    between atoms: _592  and  _593
REMARK  243  A    between atoms: _593  and  _594
REMARK  244  A    between atoms: _598  and  _600
REMARK  245  A    between atoms: _600  and  _601
REMARK  246  A    between atoms: _600  and  _608
REMARK  247  A    between atoms: _601  and  _602
REMARK  248  A    between atoms: _602  and  _603
REMARK  249  A    between atoms: _603  and  _604
REMARK  250  A    between atoms: _604  and  _605
REMARK  251  A    between atoms: _610  and  _612
REMARK  252  A    between atoms: _612  and  _613
REMARK  253  A    between atoms: _612  and  _615
REMARK  254  A    between atoms: _615  and  _616
REMARK  255  A    between atoms: _619  and  _621
REMARK  256  A    between atoms: _621  and  _622
REMARK  257  A    between atoms: _624  and  _626
REMARK  258  A    between atoms: _626  and  _627
REMARK  259  A    between atoms: _630  and  _632
REMARK  260  A    between atoms: _632  and  _633
REMARK  261  A    between atoms: _632  and  _635
REMARK  262  A    between atoms: _635  and  _636
REMARK  263  A    between atoms: _641  and  _642
REMARK                            x       y       z     vdW  Elec       q    Type
REMARK                         _______ _______ _______ _____ _____    ______ ____
ROOT
ATOM      1  O   HOH     1      38.683  24.072  22.648  0.00  0.00    +0.000 OA
ENDROOT
TORSDOF 0
REMARK  Name = ../refined-set-2016/2qrg/2qrg_pocket.pdb
REMARK  263 active torsions:
REMARK  status: ('A' for Active; 'I' for Inactive)
REMARK    1  A    between atoms: _1  and  _3
REMARK    2  A    between atoms: _3  and  _4
REMARK    3  A    between atoms: _3  and  _6
REMARK    4  A    between atoms: _6  and  _7
REMARK    5  A    between atoms: _12  and  _13
REMARK    6  A    between atoms: _15  and  _17
REMARK    7  A    between atoms: _17  and  _18
REMARK    8  A    between atoms: _17  and  _20
REMARK    9  A    between atoms: _20  and  _21
REMARK   10  A    between atoms: _24  and  _26
REMARK   11  A    between atoms: _26  and  _27
REMARK   12  A    between atoms: _26  and  _29
REMARK   13  A    between atoms: _29  and  _30
REMARK   14  A    between atoms: _30  and  _31
REMARK   15  A    between atoms: _34  and  _36
REMARK   16  A    between atoms: _36  and  _37
REMARK   17  A    between atoms: _36  and  _39
REMARK   18  A    between atoms: _39  and  _40
REMARK   19  A    between atoms: _45  and  _47
REMARK   20  A    between atoms: _47  and  _48
REMARK   21  A    between atoms: _50  and  _52
REMARK   22  A    between atoms: _52  and  _53
REMARK   23  A    between atoms: _55  and  _57
REMARK   24  A    between atoms: _57  and  _58
REMARK   25  A    between atoms: _57  and  _60
REMARK   26  A    between atoms: _60  and  _61
REMARK   27  A    between atoms: _64  and  _66
REMARK   28  A    between atoms: _66  and  _67
REMARK   29  A    between atoms: _69  and  _71
REMARK   30  A    between atoms: _71  and  _72
REMARK   31  A    between atoms: _71  and  _74
REMARK   32  A    between atoms: _74  and  _75
REMARK   33  A    between atoms: _75  and  _76
REMARK   34  A    between atoms: _76  and  _77
REMARK   35  A    between atoms: _86  and  _88
REMARK   36  A    between atoms: _88  and  _89
REMARK   37  A    between atoms: _88  and  _91
REMARK   38  A    between atoms: _91  and  _92
REMARK   39  A    between atoms: _95  and  _97
REMARK   40  A    between atoms: _97  and  _98
REMARK   41  A    between atoms: _101  and  _103
REMARK   42  A    between atoms: _103  and  _104
REMARK   43  A    between atoms: _103  and  _106
REMARK   44  A    between atoms: _106  and  _107
REMARK   45  A    between atoms: _113  and  _115
REMARK   46  A    between atoms: _115  and  _116
REMARK   47  A    between atoms: _115  and  _118
REMARK   48  A    between atoms: _118  and  _119
REMARK   49  A    between atoms: _122  and  _124
REMARK   50  A    between atoms: _124  and  _125
REMARK   51  A    between atoms: _124  and  _127
REMARK   52  A    between atoms: _127  and  _128
REMARK   53  A    between atoms: _133  and  _134
REMARK   54  A    between atoms: _137  and  _138
REMARK   55  A    between atoms: _143  and  _145
REMARK   56  A    between atoms: _145  and  _146
REMARK   57  A    between atoms: _145  and  _148
REMARK   58  A    between atoms: _148  and  _149
REMARK   59  A    between atoms: _154  and  _156
REMARK   60  A    between atoms: _156  and  _157
REMARK   61  A    between atoms: _156  and  _159
REMARK   62  A    between atoms: _159  and  _160
REMARK   63  A    between atoms: _163  and  _165
REMARK   64  A    between atoms: _165  and  _166
REMARK   65  A    between atoms: _165  and  _168
REMARK   66  A    between atoms: _168  and  _169
REMARK   67  A    between atoms: _174  and  _176
REMARK   68  A    between atoms: _176  and  _177
REMARK   69  A    between atoms: _176  and  _179
REMARK   70  A    between atoms: _179  and  _180
REMARK   71  A    between atoms: _186  and  _188
REMARK   72  A    between atoms: _188  and  _189
REMARK   73  A    between atoms: _188  and  _191
REMARK   74  A    between atoms: _191  and  _192
REMARK   75  A    between atoms: _198  and  _200
REMARK   76  A    between atoms: _200  and  _201
REMARK   77  A    between atoms: _200  and  _203
REMARK   78  A    between atoms: _203  and  _204
REMARK   79  A    between atoms: _204  and  _205
REMARK   80  A    between atoms: _208  and  _210
REMARK   81  A    between atoms: _210  and  _211
REMARK   82  A    between atoms: _210  and  _213
REMARK   83  A    between atoms: _213  and  _214
REMARK   84  A    between atoms: _214  and  _215
REMARK   85  A    between atoms: _215  and  _216
REMARK   86  A    between atoms: _225  and  _227
REMARK   87  A    between atoms: _227  and  _228
REMARK   88  A    between atoms: _227  and  _230
REMARK   89  A    between atoms: _230  and  _231
REMARK   90  A    between atoms: _231  and  _232
REMARK   91  A    between atoms: _235  and  _237
REMARK   92  A    between atoms: _237  and  _238
REMARK   93  A    between atoms: _237  and  _240
REMARK   94  A    between atoms: _240  and  _241
REMARK   95  A    between atoms: _246  and  _248
REMARK   96  A    between atoms: _248  and  _249
REMARK   97  A    between atoms: _248  and  _251
REMARK   98  A    between atoms: _251  and  _252
REMARK   99  A    between atoms: _255  and  _257
REMARK  100  A    between atoms: _257  and  _258
REMARK  101  A    between atoms: _257  and  _260
REMARK  102  A    between atoms: _260  and  _261
REMARK  103  A    between atoms: _264  and  _266
REMARK  104  A    between atoms: _266  and  _267
REMARK  105  A    between atoms: _266  and  _269
REMARK  106  A    between atoms: _269  and  _270
REMARK  107  A    between atoms: _275  and  _277
REMARK  108  A    between atoms: _277  and  _278
REMARK  109  A    between atoms: _277  and  _280
REMARK  110  A    between atoms: _280  and  _281
REMARK  111  A    between atoms: _284  and  _286
REMARK  112  A    between atoms: _286  and  _287
REMARK  113  A    between atoms: _286  and  _289
REMARK  114  A    between atoms: _289  and  _290
REMARK  115  A    between atoms: _295  and  _297
REMARK  116  A    between atoms: _297  and  _298
REMARK  117  A    between atoms: _297  and  _300
REMARK  118  A    between atoms: _300  and  _301
REMARK  119  A    between atoms: _306  and  _308
REMARK  120  A    between atoms: _308  and  _309
REMARK  121  A    between atoms: _308  and  _311
REMARK  122  A    between atoms: _311  and  _312
REMARK  123  A    between atoms: _315  and  _317
REMARK  124  A    between atoms: _317  and  _318
REMARK  125  A    between atoms: _317  and  _320
REMARK  126  A    between atoms: _323  and  _325
REMARK  127  A    between atoms: _325  and  _326
REMARK  128  A    between atoms: _325  and  _328
REMARK  129  A    between atoms: _328  and  _329
REMARK  130  A    between atoms: _332  and  _334
REMARK  131  A    between atoms: _334  and  _335
REMARK  132  A    between atoms: _334  and  _337
REMARK  133  A    between atoms: _337  and  _338
REMARK  134  A    between atoms: _338  and  _339
REMARK  135  A    between atoms: _342  and  _344
REMARK  136  A    between atoms: _344  and  _345
REMARK  137  A    between atoms: _348  and  _350
REMARK  138  A    between atoms: _350  and  _351
REMARK  139  A    between atoms: _350  and  _353
REMARK  140  A    between atoms: _353  and  _354
REMARK  141  A    between atoms: _357  and  _359
REMARK  142  A    between atoms: _359  and  _360
REMARK  143  A    between atoms: _359  and  _362
REMARK  144  A    between atoms: _362  and  _363
REMARK  145  A    between atoms: _363  and  _364
REMARK  146  A    between atoms: _367  and  _369
REMARK  147  A    between atoms: _369  and  _370
REMARK  148  A    between atoms: _369  and  _372
REMARK  149  A    between atoms: _372  and  _373
REMARK  150  A    between atoms: _378  and  _380
REMARK  151  A    between atoms: _380  and  _381
REMARK  152  A    between atoms: _383  and  _385
REMARK  153  A    between atoms: _385  and  _386
REMARK  154  A    between atoms: _385  and  _388
REMARK  155  A    between atoms: _391  and  _393
REMARK  156  A    between atoms: _393  and  _394
REMARK  157  A    between atoms: _397  and  _399
REMARK  158  A    between atoms: _399  and  _400
REMARK  159  A    between atoms: _399  and  _402
REMARK  160  A    between atoms: _402  and  _403
REMARK  161  A    between atoms: _408  and  _410
REMARK  162  A    between atoms: _410  and  _411
REMARK  163  A    between atoms: _410  and  _413
REMARK  164  A    between atoms: _413  and  _414
REMARK  165  A    between atoms: _414  and  _415
REMARK  166  A    between atoms: _415  and  _416
REMARK  167  A    between atoms: _416  and  _417
REMARK  168  A    between atoms: _421  and  _423
REMARK  169  A    between atoms: _423  and  _424
REMARK  170  A    between atoms: _423  and  _426
REMARK  171  A    between atoms: _426  and  _427
REMARK  172  A    between atoms: _430  and  _432
REMARK  173  A    between atoms: _432  and  _433
REMARK  174  A    between atoms: _432  and  _435
REMARK  175  A    between atoms: _435  and  _436
REMARK  176  A    between atoms: _441  and  _443
REMARK  177  A    between atoms: _443  and  _444
REMARK  178  A    between atoms: _446  and  _448
REMARK  179  A    between atoms: _448  and  _449
REMARK  180  A    between atoms: _448  and  _451
REMARK  181  A    between atoms: _451  and  _452
REMARK  182  A    between atoms: _452  and  _453
REMARK  183  A    between atoms: _453  and  _454
REMARK  184  A    between atoms: _454  and  _455
REMARK  185  A    between atoms: _459  and  _461
REMARK  186  A    between atoms: _461  and  _462
REMARK  187  A    between atoms: _461  and  _464
REMARK  188  A    between atoms: _464  and  _465
REMARK  189  A    between atoms: _465  and  _466
REMARK  190  A    between atoms: _466  and  _467
REMARK  191  A    between atoms: _476  and  _478
REMARK  192  A    between atoms: _478  and  _479
REMARK  193  A    between atoms: _478  and  _481
REMARK  194  A    between atoms: _481  and  _482
REMARK  195  A    between atoms: _487  and  _488
REMARK  196  A    between atoms: _490  and  _492
REMARK  197  A    between atoms: _492  and  _493
REMARK  198  A    between atoms: _492  and  _495
REMARK  199  A    between atoms: _495  and  _496
REMARK  200  A    between atoms: _496  and  _497
REMARK  201  A    between atoms: _497  and  _498
REMARK  202  A    between atoms: _498  and  _499
REMARK  203  A    between atoms: _503  and  _505
REMARK  204  A    between atoms: _505  and  _506
REMARK  205  A    between atoms: _505  and  _508
REMARK  206  A    between atoms: _508  and  _509
REMARK  207  A    between atoms: _511  and  _513
REMARK  208  A    between atoms: _513  and  _514
REMARK  209  A    between atoms: _513  and  _516
REMARK  210  A    between atoms: _516  and  _517
REMARK  211  A    between atoms: _520  and  _522
REMARK  212  A    between atoms: _522  and  _523
REMARK  213  A    between atoms: _522  and  _525
REMARK  214  A    between atoms: _525  and  _526
REMARK  215  A    between atoms: _526  and  _527
REMARK  216  A    between atoms: _530  and  _532
REMARK  217  A    between atoms: _532  and  _533
REMARK  218  A    between atoms: _536  and  _538
REMARK  219  A    between atoms: _538  and  _539
REMARK  220  A    between atoms: _538  and  _541
REMARK  221  A    between atoms: _541  and  _542
REMARK  222  A    between atoms: _544  and  _546
REMARK  223  A    between atoms: _546  and  _547
REMARK  224  A    between atoms: _549  and  _551
REMARK  225  A    between atoms: _551  and  _552
REMARK  226  A    between atoms: _551  and  _554
REMARK  227  A    between atoms: _554  and  _555
REMARK  228  A    between atoms: _558  and  _560
REMARK  229  A    between atoms: _560  and  _561
REMARK  230  A    between atoms: _563  and  _565
REMARK  231  A    between atoms: _565  and  _566
REMARK  232  A    between atoms: _565  and  _568
REMARK  233  A    between atoms: _568  and  _569
REMARK  234  A    between atoms: _574  and  _576
REMARK  235  A    between atoms: _576  and  _577
REMARK  236  A    between atoms: _576  and  _579
REMARK  237  A    between atoms: _579  and  _580
REMARK  238  A    between atoms: _580  and  _581
REMARK  239  A    between atoms: _588  and  _589
REMARK  240  A    between atoms: _589  and  _605
REMARK  241  A    between atoms: _590  and  _592
REMARK  242  A    between atoms: _592  and  _593
REMARK  243  A    between atoms: _593  and  _594
REMARK  244  A    between atoms: _598  and  _600
REMARK  245  A    between atoms: _600  and  _601
REMARK  246  A    between atoms: _600  and  _608
REMARK  247  A    between atoms: _601  and  _602
REMARK  248  A    between atoms: _602  and  _603
REMARK  249  A    between atoms: _603  and  _604
REMARK  250  A    between atoms: _604  and  _605
REMARK  251  A    between atoms: _610  and  _612
REMARK  252  A    between atoms: _612  and  _613
REMARK  253  A    between atoms: _612  and  _615
REMARK  254  A    between atoms: _615  and  _616
REMARK  255  A    between atoms: _619  and  _621
REMARK  256  A    between atoms: _621  and  _622
REMARK  257  A    between atoms: _624  and  _626
REMARK  258  A    between atoms: _626  and  _627
REMARK  259  A    between atoms: _630  and  _632
REMARK  260  A    between atoms: _632  and  _633
REMARK  261  A    between atoms: _632  and  _635
REMARK  262  A    between atoms: _635  and  _636
REMARK  263  A    between atoms: _641  and  _642
REMARK                            x       y       z     vdW  Elec       q    Type
REMARK                         _______ _______ _______ _____ _____    ______ ____
ROOT
ATOM      1  O   HOH     1      40.952  26.191  37.114  0.00  0.00    +0.000 OA
ENDROOT
TORSDOF 0
REMARK  Name = ../refined-set-2016/2qrg/2qrg_pocket.pdb
REMARK  263 active torsions:
REMARK  status: ('A' for Active; 'I' for Inactive)
REMARK    1  A    between atoms: _1  and  _3
REMARK    2  A    between atoms: _3  and  _4
REMARK    3  A    between atoms: _3  and  _6
REMARK    4  A    between atoms: _6  and  _7
REMARK    5  A    between atoms: _12  and  _13
REMARK    6  A    between atoms: _15  and  _17
REMARK    7  A    between atoms: _17  and  _18
REMARK    8  A    between atoms: _17  and  _20
REMARK    9  A    between atoms: _20  and  _21
REMARK   10  A    between atoms: _24  and  _26
REMARK   11  A    between atoms: _26  and  _27
REMARK   12  A    between atoms: _26  and  _29
REMARK   13  A    between atoms: _29  and  _30
REMARK   14  A    between atoms: _30  and  _31
REMARK   15  A    between atoms: _34  and  _36
REMARK   16  A    between atoms: _36  and  _37
REMARK   17  A    between atoms: _36  and  _39
REMARK   18  A    between atoms: _39  and  _40
REMARK   19  A    between atoms: _45  and  _47
REMARK   20  A    between atoms: _47  and  _48
REMARK   21  A    between atoms: _50  and  _52
REMARK   22  A    between atoms: _52  and  _53
REMARK   23  A    between atoms: _55  and  _57
REMARK   24  A    between atoms: _57  and  _58
REMARK   25  A    between atoms: _57  and  _60
REMARK   26  A    between atoms: _60  and  _61
REMARK   27  A    between atoms: _64  and  _66
REMARK   28  A    between atoms: _66  and  _67
REMARK   29  A    between atoms: _69  and  _71
REMARK   30  A    between atoms: _71  and  _72
REMARK   31  A    between atoms: _71  and  _74
REMARK   32  A    between atoms: _74  and  _75
REMARK   33  A    between atoms: _75  and  _76
REMARK   34  A    between atoms: _76  and  _77
REMARK   35  A    between atoms: _86  and  _88
REMARK   36  A    between atoms: _88  and  _89
REMARK   37  A    between atoms: _88  and  _91
REMARK   38  A    between atoms: _91  and  _92
REMARK   39  A    between atoms: _95  and  _97
REMARK   40  A    between atoms: _97  and  _98
REMARK   41  A    between atoms: _101  and  _103
REMARK   42  A    between atoms: _103  and  _104
REMARK   43  A    between atoms: _103  and  _106
REMARK   44  A    between atoms: _106  and  _107
REMARK   45  A    between atoms: _113  and  _115
REMARK   46  A    between atoms: _115  and  _116
REMARK   47  A    between atoms: _115  and  _118
REMARK   48  A    between atoms: _118  and  _119
REMARK   49  A    between atoms: _122  and  _124
REMARK   50  A    between atoms: _124  and  _125
REMARK   51  A    between atoms: _124  and  _127
REMARK   52  A    between atoms: _127  and  _128
REMARK   53  A    between atoms: _133  and  _134
REMARK   54  A    between atoms: _137  and  _138
REMARK   55  A    between atoms: _143  and  _145
REMARK   56  A    between atoms: _145  and  _146
REMARK   57  A    between atoms: _145  and  _148
REMARK   58  A    between atoms: _148  and  _149
REMARK   59  A    between atoms: _154  and  _156
REMARK   60  A    between atoms: _156  and  _157
REMARK   61  A    between atoms: _156  and  _159
REMARK   62  A    between atoms: _159  and  _160
REMARK   63  A    between atoms: _163  and  _165
REMARK   64  A    between atoms: _165  and  _166
REMARK   65  A    between atoms: _165  and  _168
REMARK   66  A    between atoms: _168  and  _169
REMARK   67  A    between atoms: _174  and  _176
REMARK   68  A    between atoms: _176  and  _177
REMARK   69  A    between atoms: _176  and  _179
REMARK   70  A    between atoms: _179  and  _180
REMARK   71  A    between atoms: _186  and  _188
REMARK   72  A    between atoms: _188  and  _189
REMARK   73  A    between atoms: _188  and  _191
REMARK   74  A    between atoms: _191  and  _192
REMARK   75  A    between atoms: _198  and  _200
REMARK   76  A    between atoms: _200  and  _201
REMARK   77  A    between atoms: _200  and  _203
REMARK   78  A    between atoms: _203  and  _204
REMARK   79  A    between atoms: _204  and  _205
REMARK   80  A    between atoms: _208  and  _210
REMARK   81  A    between atoms: _210  and  _211
REMARK   82  A    between atoms: _210  and  _213
REMARK   83  A    between atoms: _213  and  _214
REMARK   84  A    between atoms: _214  and  _215
REMARK   85  A    between atoms: _215  and  _216
REMARK   86  A    between atoms: _225  and  _227
REMARK   87  A    between atoms: _227  and  _228
REMARK   88  A    between atoms: _227  and  _230
REMARK   89  A    between atoms: _230  and  _231
REMARK   90  A    between atoms: _231  and  _232
REMARK   91  A    between atoms: _235  and  _237
REMARK   92  A    between atoms: _237  and  _238
REMARK   93  A    between atoms: _237  and  _240
REMARK   94  A    between atoms: _240  and  _241
REMARK   95  A    between atoms: _246  and  _248
REMARK   96  A    between atoms: _248  and  _249
REMARK   97  A    between atoms: _248  and  _251
REMARK   98  A    between atoms: _251  and  _252
REMARK   99  A    between atoms: _255  and  _257
REMARK  100  A    between atoms: _257  and  _258
REMARK  101  A    between atoms: _257  and  _260
REMARK  102  A    between atoms: _260  and  _261
REMARK  103  A    between atoms: _264  and  _266
REMARK  104  A    between atoms: _266  and  _267
REMARK  105  A    between atoms: _266  and  _269
REMARK  106  A    between atoms: _269  and  _270
REMARK  107  A    between atoms: _275  and  _277
REMARK  108  A    between atoms: _277  and  _278
REMARK  109  A    between atoms: _277  and  _280
REMARK  110  A    between atoms: _280  and  _281
REMARK  111  A    between atoms: _284  and  _286
REMARK  112  A    between atoms: _286  and  _287
REMARK  113  A    between atoms: _286  and  _289
REMARK  114  A    between atoms: _289  and  _290
REMARK  115  A    between atoms: _295  and  _297
REMARK  116  A    between atoms: _297  and  _298
REMARK  117  A    between atoms: _297  and  _300
REMARK  118  A    between atoms: _300  and  _301
REMARK  119  A    between atoms: _306  and  _308
REMARK  120  A    between atoms: _308  and  _309
REMARK  121  A    between atoms: _308  and  _311
REMARK  122  A    between atoms: _311  and  _312
REMARK  123  A    between atoms: _315  and  _317
REMARK  124  A    between atoms: _317  and  _318
REMARK  125  A    between atoms: _317  and  _320
REMARK  126  A    between atoms: _323  and  _325
REMARK  127  A    between atoms: _325  and  _326
REMARK  128  A    between atoms: _325  and  _328
REMARK  129  A    between atoms: _328  and  _329
REMARK  130  A    between atoms: _332  and  _334
REMARK  131  A    between atoms: _334  and  _335
REMARK  132  A    between atoms: _334  and  _337
REMARK  133  A    between atoms: _337  and  _338
REMARK  134  A    between atoms: _338  and  _339
REMARK  135  A    between atoms: _342  and  _344
REMARK  136  A    between atoms: _344  and  _345
REMARK  137  A    between atoms: _348  and  _350
REMARK  138  A    between atoms: _350  and  _351
REMARK  139  A    between atoms: _350  and  _353
REMARK  140  A    between atoms: _353  and  _354
REMARK  141  A    between atoms: _357  and  _359
REMARK  142  A    between atoms: _359  and  _360
REMARK  143  A    between atoms: _359  and  _362
REMARK  144  A    between atoms: _362  and  _363
REMARK  145  A    between atoms: _363  and  _364
REMARK  146  A    between atoms: _367  and  _369
REMARK  147  A    between atoms: _369  and  _370
REMARK  148  A    between atoms: _369  and  _372
REMARK  149  A    between atoms: _372  and  _373
REMARK  150  A    between atoms: _378  and  _380
REMARK  151  A    between atoms: _380  and  _381
REMARK  152  A    between atoms: _383  and  _385
REMARK  153  A    between atoms: _385  and  _386
REMARK  154  A    between atoms: _385  and  _388
REMARK  155  A    between atoms: _391  and  _393
REMARK  156  A    between atoms: _393  and  _394
REMARK  157  A    between atoms: _397  and  _399
REMARK  158  A    between atoms: _399  and  _400
REMARK  159  A    between atoms: _399  and  _402
REMARK  160  A    between atoms: _402  and  _403
REMARK  161  A    between atoms: _408  and  _410
REMARK  162  A    between atoms: _410  and  _411
REMARK  163  A    between atoms: _410  and  _413
REMARK  164  A    between atoms: _413  and  _414
REMARK  165  A    between atoms: _414  and  _415
REMARK  166  A    between atoms: _415  and  _416
REMARK  167  A    between atoms: _416  and  _417
REMARK  168  A    between atoms: _421  and  _423
REMARK  169  A    between atoms: _423  and  _424
REMARK  170  A    between atoms: _423  and  _426
REMARK  171  A    between atoms: _426  and  _427
REMARK  172  A    between atoms: _430  and  _432
REMARK  173  A    between atoms: _432  and  _433
REMARK  174  A    between atoms: _432  and  _435
REMARK  175  A    between atoms: _435  and  _436
REMARK  176  A    between atoms: _441  and  _443
REMARK  177  A    between atoms: _443  and  _444
REMARK  178  A    between atoms: _446  and  _448
REMARK  179  A    between atoms: _448  and  _449
REMARK  180  A    between atoms: _448  and  _451
REMARK  181  A    between atoms: _451  and  _452
REMARK  182  A    between atoms: _452  and  _453
REMARK  183  A    between atoms: _453  and  _454
REMARK  184  A    between atoms: _454  and  _455
REMARK  185  A    between atoms: _459  and  _461
REMARK  186  A    between atoms: _461  and  _462
REMARK  187  A    between atoms: _461  and  _464
REMARK  188  A    between atoms: _464  and  _465
REMARK  189  A    between atoms: _465  and  _466
REMARK  190  A    between atoms: _466  and  _467
REMARK  191  A    between atoms: _476  and  _478
REMARK  192  A    between atoms: _478  and  _479
REMARK  193  A    between atoms: _478  and  _481
REMARK  194  A    between atoms: _481  and  _482
REMARK  195  A    between atoms: _487  and  _488
REMARK  196  A    between atoms: _490  and  _492
REMARK  197  A    between atoms: _492  and  _493
REMARK  198  A    between atoms: _492  and  _495
REMARK  199  A    between atoms: _495  and  _496
REMARK  200  A    between atoms: _496  and  _497
REMARK  201  A    between atoms: _497  and  _498
REMARK  202  A    between atoms: _498  and  _499
REMARK  203  A    between atoms: _503  and  _505
REMARK  204  A    between atoms: _505  and  _506
REMARK  205  A    between atoms: _505  and  _508
REMARK  206  A    between atoms: _508  and  _509
REMARK  207  A    between atoms: _511  and  _513
REMARK  208  A    between atoms: _513  and  _514
REMARK  209  A    between atoms: _513  and  _516
REMARK  210  A    between atoms: _516  and  _517
REMARK  211  A    between atoms: _520  and  _522
REMARK  212  A    between atoms: _522  and  _523
REMARK  213  A    between atoms: _522  and  _525
REMARK  214  A    between atoms: _525  and  _526
REMARK  215  A    between atoms: _526  and  _527
REMARK  216  A    between atoms: _530  and  _532
REMARK  217  A    between atoms: _532  and  _533
REMARK  218  A    between atoms: _536  and  _538
REMARK  219  A    between atoms: _538  and  _539
REMARK  220  A    between atoms: _538  and  _541
REMARK  221  A    between atoms: _541  and  _542
REMARK  222  A    between atoms: _544  and  _546
REMARK  223  A    between atoms: _546  and  _547
REMARK  224  A    between atoms: _549  and  _551
REMARK  225  A    between atoms: _551  and  _552
REMARK  226  A    between atoms: _551  and  _554
REMARK  227  A    between atoms: _554  and  _555
REMARK  228  A    between atoms: _558  and  _560
REMARK  229  A    between atoms: _560  and  _561
REMARK  230  A    between atoms: _563  and  _565
REMARK  231  A    between atoms: _565  and  _566
REMARK  232  A    between atoms: _565  and  _568
REMARK  233  A    between atoms: _568  and  _569
REMARK  234  A    between atoms: _574  and  _576
REMARK  235  A    between atoms: _576  and  _577
REMARK  236  A    between atoms: _576  and  _579
REMARK  237  A    between atoms: _579  and  _580
REMARK  238  A    between atoms: _580  and  _581
REMARK  239  A    between atoms: _588  and  _589
REMARK  240  A    between atoms: _589  and  _605
REMARK  241  A    between atoms: _590  and  _592
REMARK  242  A    between atoms: _592  and  _593
REMARK  243  A    between atoms: _593  and  _594
REMARK  244  A    between atoms: _598  and  _600
REMARK  245  A    between atoms: _600  and  _601
REMARK  246  A    between atoms: _600  and  _608
REMARK  247  A    between atoms: _601  and  _602
REMARK  248  A    between atoms: _602  and  _603
REMARK  249  A    between atoms: _603  and  _604
REMARK  250  A    between atoms: _604  and  _605
REMARK  251  A    between atoms: _610  and  _612
REMARK  252  A    between atoms: _612  and  _613
REMARK  253  A    between atoms: _612  and  _615
REMARK  254  A    between atoms: _615  and  _616
REMARK  255  A    between atoms: _619  and  _621
REMARK  256  A    between atoms: _621  and  _622
REMARK  257  A    between atoms: _624  and  _626
REMARK  258  A    between atoms: _626  and  _627
REMARK  259  A    between atoms: _630  and  _632
REMARK  260  A    between atoms: _632  and  _633
REMARK  261  A    between atoms: _632  and  _635
REMARK  262  A    between atoms: _635  and  _636
REMARK  263  A    between atoms: _641  and  _642
REMARK                            x       y       z     vdW  Elec       q    Type
REMARK                         _______ _______ _______ _____ _____    ______ ____
ROOT
ATOM      1  O   HOH     1      36.742  22.351  18.147  0.00  0.00    +0.000 OA
ENDROOT
TORSDOF 0
REMARK  Name = ../refined-set-2016/2qrg/2qrg_pocket.pdb
REMARK  263 active torsions:
REMARK  status: ('A' for Active; 'I' for Inactive)
REMARK    1  A    between atoms: _1  and  _3
REMARK    2  A    between atoms: _3  and  _4
REMARK    3  A    between atoms: _3  and  _6
REMARK    4  A    between atoms: _6  and  _7
REMARK    5  A    between atoms: _12  and  _13
REMARK    6  A    between atoms: _15  and  _17
REMARK    7  A    between atoms: _17  and  _18
REMARK    8  A    between atoms: _17  and  _20
REMARK    9  A    between atoms: _20  and  _21
REMARK   10  A    between atoms: _24  and  _26
REMARK   11  A    between atoms: _26  and  _27
REMARK   12  A    between atoms: _26  and  _29
REMARK   13  A    between atoms: _29  and  _30
REMARK   14  A    between atoms: _30  and  _31
REMARK   15  A    between atoms: _34  and  _36
REMARK   16  A    between atoms: _36  and  _37
REMARK   17  A    between atoms: _36  and  _39
REMARK   18  A    between atoms: _39  and  _40
REMARK   19  A    between atoms: _45  and  _47
REMARK   20  A    between atoms: _47  and  _48
REMARK   21  A    between atoms: _50  and  _52
REMARK   22  A    between atoms: _52  and  _53
REMARK   23  A    between atoms: _55  and  _57
REMARK   24  A    between atoms: _57  and  _58
REMARK   25  A    between atoms: _57  and  _60
REMARK   26  A    between atoms: _60  and  _61
REMARK   27  A    between atoms: _64  and  _66
REMARK   28  A    between atoms: _66  and  _67
REMARK   29  A    between atoms: _69  and  _71
REMARK   30  A    between atoms: _71  and  _72
REMARK   31  A    between atoms: _71  and  _74
REMARK   32  A    between atoms: _74  and  _75
REMARK   33  A    between atoms: _75  and  _76
REMARK   34  A    between atoms: _76  and  _77
REMARK   35  A    between atoms: _86  and  _88
REMARK   36  A    between atoms: _88  and  _89
REMARK   37  A    between atoms: _88  and  _91
REMARK   38  A    between atoms: _91  and  _92
REMARK   39  A    between atoms: _95  and  _97
REMARK   40  A    between atoms: _97  and  _98
REMARK   41  A    between atoms: _101  and  _103
REMARK   42  A    between atoms: _103  and  _104
REMARK   43  A    between atoms: _103  and  _106
REMARK   44  A    between atoms: _106  and  _107
REMARK   45  A    between atoms: _113  and  _115
REMARK   46  A    between atoms: _115  and  _116
REMARK   47  A    between atoms: _115  and  _118
REMARK   48  A    between atoms: _118  and  _119
REMARK   49  A    between atoms: _122  and  _124
REMARK   50  A    between atoms: _124  and  _125
REMARK   51  A    between atoms: _124  and  _127
REMARK   52  A    between atoms: _127  and  _128
REMARK   53  A    between atoms: _133  and  _134
REMARK   54  A    between atoms: _137  and  _138
REMARK   55  A    between atoms: _143  and  _145
REMARK   56  A    between atoms: _145  and  _146
REMARK   57  A    between atoms: _145  and  _148
REMARK   58  A    between atoms: _148  and  _149
REMARK   59  A    between atoms: _154  and  _156
REMARK   60  A    between atoms: _156  and  _157
REMARK   61  A    between atoms: _156  and  _159
REMARK   62  A    between atoms: _159  and  _160
REMARK   63  A    between atoms: _163  and  _165
REMARK   64  A    between atoms: _165  and  _166
REMARK   65  A    between atoms: _165  and  _168
REMARK   66  A    between atoms: _168  and  _169
REMARK   67  A    between atoms: _174  and  _176
REMARK   68  A    between atoms: _176  and  _177
REMARK   69  A    between atoms: _176  and  _179
REMARK   70  A    between atoms: _179  and  _180
REMARK   71  A    between atoms: _186  and  _188
REMARK   72  A    between atoms: _188  and  _189
REMARK   73  A    between atoms: _188  and  _191
REMARK   74  A    between atoms: _191  and  _192
REMARK   75  A    between atoms: _198  and  _200
REMARK   76  A    between atoms: _200  and  _201
REMARK   77  A    between atoms: _200  and  _203
REMARK   78  A    between atoms: _203  and  _204
REMARK   79  A    between atoms: _204  and  _205
REMARK   80  A    between atoms: _208  and  _210
REMARK   81  A    between atoms: _210  and  _211
REMARK   82  A    between atoms: _210  and  _213
REMARK   83  A    between atoms: _213  and  _214
REMARK   84  A    between atoms: _214  and  _215
REMARK   85  A    between atoms: _215  and  _216
REMARK   86  A    between atoms: _225  and  _227
REMARK   87  A    between atoms: _227  and  _228
REMARK   88  A    between atoms: _227  and  _230
REMARK   89  A    between atoms: _230  and  _231
REMARK   90  A    between atoms: _231  and  _232
REMARK   91  A    between atoms: _235  and  _237
REMARK   92  A    between atoms: _237  and  _238
REMARK   93  A    between atoms: _237  and  _240
REMARK   94  A    between atoms: _240  and  _241
REMARK   95  A    between atoms: _246  and  _248
REMARK   96  A    between atoms: _248  and  _249
REMARK   97  A    between atoms: _248  and  _251
REMARK   98  A    between atoms: _251  and  _252
REMARK   99  A    between atoms: _255  and  _257
REMARK  100  A    between atoms: _257  and  _258
REMARK  101  A    between atoms: _257  and  _260
REMARK  102  A    between atoms: _260  and  _261
REMARK  103  A    between atoms: _264  and  _266
REMARK  104  A    between atoms: _266  and  _267
REMARK  105  A    between atoms: _266  and  _269
REMARK  106  A    between atoms: _269  and  _270
REMARK  107  A    between atoms: _275  and  _277
REMARK  108  A    between atoms: _277  and  _278
REMARK  109  A    between atoms: _277  and  _280
REMARK  110  A    between atoms: _280  and  _281
REMARK  111  A    between atoms: _284  and  _286
REMARK  112  A    between atoms: _286  and  _287
REMARK  113  A    between atoms: _286  and  _289
REMARK  114  A    between atoms: _289  and  _290
REMARK  115  A    between atoms: _295  and  _297
REMARK  116  A    between atoms: _297  and  _298
REMARK  117  A    between atoms: _297  and  _300
REMARK  118  A    between atoms: _300  and  _301
REMARK  119  A    between atoms: _306  and  _308
REMARK  120  A    between atoms: _308  and  _309
REMARK  121  A    between atoms: _308  and  _311
REMARK  122  A    between atoms: _311  and  _312
REMARK  123  A    between atoms: _315  and  _317
REMARK  124  A    between atoms: _317  and  _318
REMARK  125  A    between atoms: _317  and  _320
REMARK  126  A    between atoms: _323  and  _325
REMARK  127  A    between atoms: _325  and  _326
REMARK  128  A    between atoms: _325  and  _328
REMARK  129  A    between atoms: _328  and  _329
REMARK  130  A    between atoms: _332  and  _334
REMARK  131  A    between atoms: _334  and  _335
REMARK  132  A    between atoms: _334  and  _337
REMARK  133  A    between atoms: _337  and  _338
REMARK  134  A    between atoms: _338  and  _339
REMARK  135  A    between atoms: _342  and  _344
REMARK  136  A    between atoms: _344  and  _345
REMARK  137  A    between atoms: _348  and  _350
REMARK  138  A    between atoms: _350  and  _351
REMARK  139  A    between atoms: _350  and  _353
REMARK  140  A    between atoms: _353  and  _354
REMARK  141  A    between atoms: _357  and  _359
REMARK  142  A    between atoms: _359  and  _360
REMARK  143  A    between atoms: _359  and  _362
REMARK  144  A    between atoms: _362  and  _363
REMARK  145  A    between atoms: _363  and  _364
REMARK  146  A    between atoms: _367  and  _369
REMARK  147  A    between atoms: _369  and  _370
REMARK  148  A    between atoms: _369  and  _372
REMARK  149  A    between atoms: _372  and  _373
REMARK  150  A    between atoms: _378  and  _380
REMARK  151  A    between atoms: _380  and  _381
REMARK  152  A    between atoms: _383  and  _385
REMARK  153  A    between atoms: _385  and  _386
REMARK  154  A    between atoms: _385  and  _388
REMARK  155  A    between atoms: _391  and  _393
REMARK  156  A    between atoms: _393  and  _394
REMARK  157  A    between atoms: _397  and  _399
REMARK  158  A    between atoms: _399  and  _400
REMARK  159  A    between atoms: _399  and  _402
REMARK  160  A    between atoms: _402  and  _403
REMARK  161  A    between atoms: _408  and  _410
REMARK  162  A    between atoms: _410  and  _411
REMARK  163  A    between atoms: _410  and  _413
REMARK  164  A    between atoms: _413  and  _414
REMARK  165  A    between atoms: _414  and  _415
REMARK  166  A    between atoms: _415  and  _416
REMARK  167  A    between atoms: _416  and  _417
REMARK  168  A    between atoms: _421  and  _423
REMARK  169  A    between atoms: _423  and  _424
REMARK  170  A    between atoms: _423  and  _426
REMARK  171  A    between atoms: _426  and  _427
REMARK  172  A    between atoms: _430  and  _432
REMARK  173  A    between atoms: _432  and  _433
REMARK  174  A    between atoms: _432  and  _435
REMARK  175  A    between atoms: _435  and  _436
REMARK  176  A    between atoms: _441  and  _443
REMARK  177  A    between atoms: _443  and  _444
REMARK  178  A    between atoms: _446  and  _448
REMARK  179  A    between atoms: _448  and  _449
REMARK  180  A    between atoms: _448  and  _451
REMARK  181  A    between atoms: _451  and  _452
REMARK  182  A    between atoms: _452  and  _453
REMARK  183  A    between atoms: _453  and  _454
REMARK  184  A    between atoms: _454  and  _455
REMARK  185  A    between atoms: _459  and  _461
REMARK  186  A    between atoms: _461  and  _462
REMARK  187  A    between atoms: _461  and  _464
REMARK  188  A    between atoms: _464  and  _465
REMARK  189  A    between atoms: _465  and  _466
REMARK  190  A    between atoms: _466  and  _467
REMARK  191  A    between atoms: _476  and  _478
REMARK  192  A    between atoms: _478  and  _479
REMARK  193  A    between atoms: _478  and  _481
REMARK  194  A    between atoms: _481  and  _482
REMARK  195  A    between atoms: _487  and  _488
REMARK  196  A    between atoms: _490  and  _492
REMARK  197  A    between atoms: _492  and  _493
REMARK  198  A    between atoms: _492  and  _495
REMARK  199  A    between atoms: _495  and  _496
REMARK  200  A    between atoms: _496  and  _497
REMARK  201  A    between atoms: _497  and  _498
REMARK  202  A    between atoms: _498  and  _499
REMARK  203  A    between atoms: _503  and  _505
REMARK  204  A    between atoms: _505  and  _506
REMARK  205  A    between atoms: _505  and  _508
REMARK  206  A    between atoms: _508  and  _509
REMARK  207  A    between atoms: _511  and  _513
REMARK  208  A    between atoms: _513  and  _514
REMARK  209  A    between atoms: _513  and  _516
REMARK  210  A    between atoms: _516  and  _517
REMARK  211  A    between atoms: _520  and  _522
REMARK  212  A    between atoms: _522  and  _523
REMARK  213  A    between atoms: _522  and  _525
REMARK  214  A    between atoms: _525  and  _526
REMARK  215  A    between atoms: _526  and  _527
REMARK  216  A    between atoms: _530  and  _532
REMARK  217  A    between atoms: _532  and  _533
REMARK  218  A    between atoms: _536  and  _538
REMARK  219  A    between atoms: _538  and  _539
REMARK  220  A    between atoms: _538  and  _541
REMARK  221  A    between atoms: _541  and  _542
REMARK  222  A    between atoms: _544  and  _546
REMARK  223  A    between atoms: _546  and  _547
REMARK  224  A    between atoms: _549  and  _551
REMARK  225  A    between atoms: _551  and  _552
REMARK  226  A    between atoms: _551  and  _554
REMARK  227  A    between atoms: _554  and  _555
REMARK  228  A    between atoms: _558  and  _560
REMARK  229  A    between atoms: _560  and  _561
REMARK  230  A    between atoms: _563  and  _565
REMARK  231  A    between atoms: _565  and  _566
REMARK  232  A    between atoms: _565  and  _568
REMARK  233  A    between atoms: _568  and  _569
REMARK  234  A    between atoms: _574  and  _576
REMARK  235  A    between atoms: _576  and  _577
REMARK  236  A    between atoms: _576  and  _579
REMARK  237  A    between atoms: _579  and  _580
REMARK  238  A    between atoms: _580  and  _581
REMARK  239  A    between atoms: _588  and  _589
REMARK  240  A    between atoms: _589  and  _605
REMARK  241  A    between atoms: _590  and  _592
REMARK  242  A    between atoms: _592  and  _593
REMARK  243  A    between atoms: _593  and  _594
REMARK  244  A    between atoms: _598  and  _600
REMARK  245  A    between atoms: _600  and  _601
REMARK  246  A    between atoms: _600  and  _608
REMARK  247  A    between atoms: _601  and  _602
REMARK  248  A    between atoms: _602  and  _603
REMARK  249  A    between atoms: _603  and  _604
REMARK  250  A    between atoms: _604  and  _605
REMARK  251  A    between atoms: _610  and  _612
REMARK  252  A    between atoms: _612  and  _613
REMARK  253  A    between atoms: _612  and  _615
REMARK  254  A    between atoms: _615  and  _616
REMARK  255  A    between atoms: _619  and  _621
REMARK  256  A    between atoms: _621  and  _622
REMARK  257  A    between atoms: _624  and  _626
REMARK  258  A    between atoms: _626  and  _627
REMARK  259  A    between atoms: _630  and  _632
REMARK  260  A    between atoms: _632  and  _633
REMARK  261  A    between atoms: _632  and  _635
REMARK  262  A    between atoms: _635  and  _636
REMARK  263  A    between atoms: _641  and  _642
REMARK                            x       y       z     vdW  Elec       q    Type
REMARK                         _______ _______ _______ _____ _____    ______ ____
ROOT
ATOM      1  O   HOH     1      29.415  26.193  18.340  0.00  0.00    +0.000 OA
ENDROOT
TORSDOF 0
REMARK  Name = ../refined-set-2016/2qrg/2qrg_pocket.pdb
REMARK  263 active torsions:
REMARK  status: ('A' for Active; 'I' for Inactive)
REMARK    1  A    between atoms: _1  and  _3
REMARK    2  A    between atoms: _3  and  _4
REMARK    3  A    between atoms: _3  and  _6
REMARK    4  A    between atoms: _6  and  _7
REMARK    5  A    between atoms: _12  and  _13
REMARK    6  A    between atoms: _15  and  _17
REMARK    7  A    between atoms: _17  and  _18
REMARK    8  A    between atoms: _17  and  _20
REMARK    9  A    between atoms: _20  and  _21
REMARK   10  A    between atoms: _24  and  _26
REMARK   11  A    between atoms: _26  and  _27
REMARK   12  A    between atoms: _26  and  _29
REMARK   13  A    between atoms: _29  and  _30
REMARK   14  A    between atoms: _30  and  _31
REMARK   15  A    between atoms: _34  and  _36
REMARK   16  A    between atoms: _36  and  _37
REMARK   17  A    between atoms: _36  and  _39
REMARK   18  A    between atoms: _39  and  _40
REMARK   19  A    between atoms: _45  and  _47
REMARK   20  A    between atoms: _47  and  _48
REMARK   21  A    between atoms: _50  and  _52
REMARK   22  A    between atoms: _52  and  _53
REMARK   23  A    between atoms: _55  and  _57
REMARK   24  A    between atoms: _57  and  _58
REMARK   25  A    between atoms: _57  and  _60
REMARK   26  A    between atoms: _60  and  _61
REMARK   27  A    between atoms: _64  and  _66
REMARK   28  A    between atoms: _66  and  _67
REMARK   29  A    between atoms: _69  and  _71
REMARK   30  A    between atoms: _71  and  _72
REMARK   31  A    between atoms: _71  and  _74
REMARK   32  A    between atoms: _74  and  _75
REMARK   33  A    between atoms: _75  and  _76
REMARK   34  A    between atoms: _76  and  _77
REMARK   35  A    between atoms: _86  and  _88
REMARK   36  A    between atoms: _88  and  _89
REMARK   37  A    between atoms: _88  and  _91
REMARK   38  A    between atoms: _91  and  _92
REMARK   39  A    between atoms: _95  and  _97
REMARK   40  A    between atoms: _97  and  _98
REMARK   41  A    between atoms: _101  and  _103
REMARK   42  A    between atoms: _103  and  _104
REMARK   43  A    between atoms: _103  and  _106
REMARK   44  A    between atoms: _106  and  _107
REMARK   45  A    between atoms: _113  and  _115
REMARK   46  A    between atoms: _115  and  _116
REMARK   47  A    between atoms: _115  and  _118
REMARK   48  A    between atoms: _118  and  _119
REMARK   49  A    between atoms: _122  and  _124
REMARK   50  A    between atoms: _124  and  _125
REMARK   51  A    between atoms: _124  and  _127
REMARK   52  A    between atoms: _127  and  _128
REMARK   53  A    between atoms: _133  and  _134
REMARK   54  A    between atoms: _137  and  _138
REMARK   55  A    between atoms: _143  and  _145
REMARK   56  A    between atoms: _145  and  _146
REMARK   57  A    between atoms: _145  and  _148
REMARK   58  A    between atoms: _148  and  _149
REMARK   59  A    between atoms: _154  and  _156
REMARK   60  A    between atoms: _156  and  _157
REMARK   61  A    between atoms: _156  and  _159
REMARK   62  A    between atoms: _159  and  _160
REMARK   63  A    between atoms: _163  and  _165
REMARK   64  A    between atoms: _165  and  _166
REMARK   65  A    between atoms: _165  and  _168
REMARK   66  A    between atoms: _168  and  _169
REMARK   67  A    between atoms: _174  and  _176
REMARK   68  A    between atoms: _176  and  _177
REMARK   69  A    between atoms: _176  and  _179
REMARK   70  A    between atoms: _179  and  _180
REMARK   71  A    between atoms: _186  and  _188
REMARK   72  A    between atoms: _188  and  _189
REMARK   73  A    between atoms: _188  and  _191
REMARK   74  A    between atoms: _191  and  _192
REMARK   75  A    between atoms: _198  and  _200
REMARK   76  A    between atoms: _200  and  _201
REMARK   77  A    between atoms: _200  and  _203
REMARK   78  A    between atoms: _203  and  _204
REMARK   79  A    between atoms: _204  and  _205
REMARK   80  A    between atoms: _208  and  _210
REMARK   81  A    between atoms: _210  and  _211
REMARK   82  A    between atoms: _210  and  _213
REMARK   83  A    between atoms: _213  and  _214
REMARK   84  A    between atoms: _214  and  _215
REMARK   85  A    between atoms: _215  and  _216
REMARK   86  A    between atoms: _225  and  _227
REMARK   87  A    between atoms: _227  and  _228
REMARK   88  A    between atoms: _227  and  _230
REMARK   89  A    between atoms: _230  and  _231
REMARK   90  A    between atoms: _231  and  _232
REMARK   91  A    between atoms: _235  and  _237
REMARK   92  A    between atoms: _237  and  _238
REMARK   93  A    between atoms: _237  and  _240
REMARK   94  A    between atoms: _240  and  _241
REMARK   95  A    between atoms: _246  and  _248
REMARK   96  A    between atoms: _248  and  _249
REMARK   97  A    between atoms: _248  and  _251
REMARK   98  A    between atoms: _251  and  _252
REMARK   99  A    between atoms: _255  and  _257
REMARK  100  A    between atoms: _257  and  _258
REMARK  101  A    between atoms: _257  and  _260
REMARK  102  A    between atoms: _260  and  _261
REMARK  103  A    between atoms: _264  and  _266
REMARK  104  A    between atoms: _266  and  _267
REMARK  105  A    between atoms: _266  and  _269
REMARK  106  A    between atoms: _269  and  _270
REMARK  107  A    between atoms: _275  and  _277
REMARK  108  A    between atoms: _277  and  _278
REMARK  109  A    between atoms: _277  and  _280
REMARK  110  A    between atoms: _280  and  _281
REMARK  111  A    between atoms: _284  and  _286
REMARK  112  A    between atoms: _286  and  _287
REMARK  113  A    between atoms: _286  and  _289
REMARK  114  A    between atoms: _289  and  _290
REMARK  115  A    between atoms: _295  and  _297
REMARK  116  A    between atoms: _297  and  _298
REMARK  117  A    between atoms: _297  and  _300
REMARK  118  A    between atoms: _300  and  _301
REMARK  119  A    between atoms: _306  and  _308
REMARK  120  A    between atoms: _308  and  _309
REMARK  121  A    between atoms: _308  and  _311
REMARK  122  A    between atoms: _311  and  _312
REMARK  123  A    between atoms: _315  and  _317
REMARK  124  A    between atoms: _317  and  _318
REMARK  125  A    between atoms: _317  and  _320
REMARK  126  A    between atoms: _323  and  _325
REMARK  127  A    between atoms: _325  and  _326
REMARK  128  A    between atoms: _325  and  _328
REMARK  129  A    between atoms: _328  and  _329
REMARK  130  A    between atoms: _332  and  _334
REMARK  131  A    between atoms: _334  and  _335
REMARK  132  A    between atoms: _334  and  _337
REMARK  133  A    between atoms: _337  and  _338
REMARK  134  A    between atoms: _338  and  _339
REMARK  135  A    between atoms: _342  and  _344
REMARK  136  A    between atoms: _344  and  _345
REMARK  137  A    between atoms: _348  and  _350
REMARK  138  A    between atoms: _350  and  _351
REMARK  139  A    between atoms: _350  and  _353
REMARK  140  A    between atoms: _353  and  _354
REMARK  141  A    between atoms: _357  and  _359
REMARK  142  A    between atoms: _359  and  _360
REMARK  143  A    between atoms: _359  and  _362
REMARK  144  A    between atoms: _362  and  _363
REMARK  145  A    between atoms: _363  and  _364
REMARK  146  A    between atoms: _367  and  _369
REMARK  147  A    between atoms: _369  and  _370
REMARK  148  A    between atoms: _369  and  _372
REMARK  149  A    between atoms: _372  and  _373
REMARK  150  A    between atoms: _378  and  _380
REMARK  151  A    between atoms: _380  and  _381
REMARK  152  A    between atoms: _383  and  _385
REMARK  153  A    between atoms: _385  and  _386
REMARK  154  A    between atoms: _385  and  _388
REMARK  155  A    between atoms: _391  and  _393
REMARK  156  A    between atoms: _393  and  _394
REMARK  157  A    between atoms: _397  and  _399
REMARK  158  A    between atoms: _399  and  _400
REMARK  159  A    between atoms: _399  and  _402
REMARK  160  A    between atoms: _402  and  _403
REMARK  161  A    between atoms: _408  and  _410
REMARK  162  A    between atoms: _410  and  _411
REMARK  163  A    between atoms: _410  and  _413
REMARK  164  A    between atoms: _413  and  _414
REMARK  165  A    between atoms: _414  and  _415
REMARK  166  A    between atoms: _415  and  _416
REMARK  167  A    between atoms: _416  and  _417
REMARK  168  A    between atoms: _421  and  _423
REMARK  169  A    between atoms: _423  and  _424
REMARK  170  A    between atoms: _423  and  _426
REMARK  171  A    between atoms: _426  and  _427
REMARK  172  A    between atoms: _430  and  _432
REMARK  173  A    between atoms: _432  and  _433
REMARK  174  A    between atoms: _432  and  _435
REMARK  175  A    between atoms: _435  and  _436
REMARK  176  A    between atoms: _441  and  _443
REMARK  177  A    between atoms: _443  and  _444
REMARK  178  A    between atoms: _446  and  _448
REMARK  179  A    between atoms: _448  and  _449
REMARK  180  A    between atoms: _448  and  _451
REMARK  181  A    between atoms: _451  and  _452
REMARK  182  A    between atoms: _452  and  _453
REMARK  183  A    between atoms: _453  and  _454
REMARK  184  A    between atoms: _454  and  _455
REMARK  185  A    between atoms: _459  and  _461
REMARK  186  A    between atoms: _461  and  _462
REMARK  187  A    between atoms: _461  and  _464
REMARK  188  A    between atoms: _464  and  _465
REMARK  189  A    between atoms: _465  and  _466
REMARK  190  A    between atoms: _466  and  _467
REMARK  191  A    between atoms: _476  and  _478
REMARK  192  A    between atoms: _478  and  _479
REMARK  193  A    between atoms: _478  and  _481
REMARK  194  A    between atoms: _481  and  _482
REMARK  195  A    between atoms: _487  and  _488
REMARK  196  A    between atoms: _490  and  _492
REMARK  197  A    between atoms: _492  and  _493
REMARK  198  A    between atoms: _492  and  _495
REMARK  199  A    between atoms: _495  and  _496
REMARK  200  A    between atoms: _496  and  _497
REMARK  201  A    between atoms: _497  and  _498
REMARK  202  A    between atoms: _498  and  _499
REMARK  203  A    between atoms: _503  and  _505
REMARK  204  A    between atoms: _505  and  _506
REMARK  205  A    between atoms: _505  and  _508
REMARK  206  A    between atoms: _508  and  _509
REMARK  207  A    between atoms: _511  and  _513
REMARK  208  A    between atoms: _513  and  _514
REMARK  209  A    between atoms: _513  and  _516
REMARK  210  A    between atoms: _516  and  _517
REMARK  211  A    between atoms: _520  and  _522
REMARK  212  A    between atoms: _522  and  _523
REMARK  213  A    between atoms: _522  and  _525
REMARK  214  A    between atoms: _525  and  _526
REMARK  215  A    between atoms: _526  and  _527
REMARK  216  A    between atoms: _530  and  _532
REMARK  217  A    between atoms: _532  and  _533
REMARK  218  A    between atoms: _536  and  _538
REMARK  219  A    between atoms: _538  and  _539
REMARK  220  A    between atoms: _538  and  _541
REMARK  221  A    between atoms: _541  and  _542
REMARK  222  A    between atoms: _544  and  _546
REMARK  223  A    between atoms: _546  and  _547
REMARK  224  A    between atoms: _549  and  _551
REMARK  225  A    between atoms: _551  and  _552
REMARK  226  A    between atoms: _551  and  _554
REMARK  227  A    between atoms: _554  and  _555
REMARK  228  A    between atoms: _558  and  _560
REMARK  229  A    between atoms: _560  and  _561
REMARK  230  A    between atoms: _563  and  _565
REMARK  231  A    between atoms: _565  and  _566
REMARK  232  A    between atoms: _565  and  _568
REMARK  233  A    between atoms: _568  and  _569
REMARK  234  A    between atoms: _574  and  _576
REMARK  235  A    between atoms: _576  and  _577
REMARK  236  A    between atoms: _576  and  _579
REMARK  237  A    between atoms: _579  and  _580
REMARK  238  A    between atoms: _580  and  _581
REMARK  239  A    between atoms: _588  and  _589
REMARK  240  A    between atoms: _589  and  _605
REMARK  241  A    between atoms: _590  and  _592
REMARK  242  A    between atoms: _592  and  _593
REMARK  243  A    between atoms: _593  and  _594
REMARK  244  A    between atoms: _598  and  _600
REMARK  245  A    between atoms: _600  and  _601
REMARK  246  A    between atoms: _600  and  _608
REMARK  247  A    between atoms: _601  and  _602
REMARK  248  A    between atoms: _602  and  _603
REMARK  249  A    between atoms: _603  and  _604
REMARK  250  A    between atoms: _604  and  _605
REMARK  251  A    between atoms: _610  and  _612
REMARK  252  A    between atoms: _612  and  _613
REMARK  253  A    between atoms: _612  and  _615
REMARK  254  A    between atoms: _615  and  _616
REMARK  255  A    between atoms: _619  and  _621
REMARK  256  A    between atoms: _621  and  _622
REMARK  257  A    between atoms: _624  and  _626
REMARK  258  A    between atoms: _626  and  _627
REMARK  259  A    between atoms: _630  and  _632
REMARK  260  A    between atoms: _632  and  _633
REMARK  261  A    between atoms: _632  and  _635
REMARK  262  A    between atoms: _635  and  _636
REMARK  263  A    between atoms: _641  and  _642
REMARK                            x       y       z     vdW  Elec       q    Type
REMARK                         _______ _______ _______ _____ _____    ______ ____
ROOT
ATOM      1  O   HOH     1      30.010  23.207  18.622  0.00  0.00    +0.000 OA
ENDROOT
TORSDOF 0
REMARK  Name = ../refined-set-2016/2qrg/2qrg_pocket.pdb
REMARK  263 active torsions:
REMARK  status: ('A' for Active; 'I' for Inactive)
REMARK    1  A    between atoms: _1  and  _3
REMARK    2  A    between atoms: _3  and  _4
REMARK    3  A    between atoms: _3  and  _6
REMARK    4  A    between atoms: _6  and  _7
REMARK    5  A    between atoms: _12  and  _13
REMARK    6  A    between atoms: _15  and  _17
REMARK    7  A    between atoms: _17  and  _18
REMARK    8  A    between atoms: _17  and  _20
REMARK    9  A    between atoms: _20  and  _21
REMARK   10  A    between atoms: _24  and  _26
REMARK   11  A    between atoms: _26  and  _27
REMARK   12  A    between atoms: _26  and  _29
REMARK   13  A    between atoms: _29  and  _30
REMARK   14  A    between atoms: _30  and  _31
REMARK   15  A    between atoms: _34  and  _36
REMARK   16  A    between atoms: _36  and  _37
REMARK   17  A    between atoms: _36  and  _39
REMARK   18  A    between atoms: _39  and  _40
REMARK   19  A    between atoms: _45  and  _47
REMARK   20  A    between atoms: _47  and  _48
REMARK   21  A    between atoms: _50  and  _52
REMARK   22  A    between atoms: _52  and  _53
REMARK   23  A    between atoms: _55  and  _57
REMARK   24  A    between atoms: _57  and  _58
REMARK   25  A    between atoms: _57  and  _60
REMARK   26  A    between atoms: _60  and  _61
REMARK   27  A    between atoms: _64  and  _66
REMARK   28  A    between atoms: _66  and  _67
REMARK   29  A    between atoms: _69  and  _71
REMARK   30  A    between atoms: _71  and  _72
REMARK   31  A    between atoms: _71  and  _74
REMARK   32  A    between atoms: _74  and  _75
REMARK   33  A    between atoms: _75  and  _76
REMARK   34  A    between atoms: _76  and  _77
REMARK   35  A    between atoms: _86  and  _88
REMARK   36  A    between atoms: _88  and  _89
REMARK   37  A    between atoms: _88  and  _91
REMARK   38  A    between atoms: _91  and  _92
REMARK   39  A    between atoms: _95  and  _97
REMARK   40  A    between atoms: _97  and  _98
REMARK   41  A    between atoms: _101  and  _103
REMARK   42  A    between atoms: _103  and  _104
REMARK   43  A    between atoms: _103  and  _106
REMARK   44  A    between atoms: _106  and  _107
REMARK   45  A    between atoms: _113  and  _115
REMARK   46  A    between atoms: _115  and  _116
REMARK   47  A    between atoms: _115  and  _118
REMARK   48  A    between atoms: _118  and  _119
REMARK   49  A    between atoms: _122  and  _124
REMARK   50  A    between atoms: _124  and  _125
REMARK   51  A    between atoms: _124  and  _127
REMARK   52  A    between atoms: _127  and  _128
REMARK   53  A    between atoms: _133  and  _134
REMARK   54  A    between atoms: _137  and  _138
REMARK   55  A    between atoms: _143  and  _145
REMARK   56  A    between atoms: _145  and  _146
REMARK   57  A    between atoms: _145  and  _148
REMARK   58  A    between atoms: _148  and  _149
REMARK   59  A    between atoms: _154  and  _156
REMARK   60  A    between atoms: _156  and  _157
REMARK   61  A    between atoms: _156  and  _159
REMARK   62  A    between atoms: _159  and  _160
REMARK   63  A    between atoms: _163  and  _165
REMARK   64  A    between atoms: _165  and  _166
REMARK   65  A    between atoms: _165  and  _168
REMARK   66  A    between atoms: _168  and  _169
REMARK   67  A    between atoms: _174  and  _176
REMARK   68  A    between atoms: _176  and  _177
REMARK   69  A    between atoms: _176  and  _179
REMARK   70  A    between atoms: _179  and  _180
REMARK   71  A    between atoms: _186  and  _188
REMARK   72  A    between atoms: _188  and  _189
REMARK   73  A    between atoms: _188  and  _191
REMARK   74  A    between atoms: _191  and  _192
REMARK   75  A    between atoms: _198  and  _200
REMARK   76  A    between atoms: _200  and  _201
REMARK   77  A    between atoms: _200  and  _203
REMARK   78  A    between atoms: _203  and  _204
REMARK   79  A    between atoms: _204  and  _205
REMARK   80  A    between atoms: _208  and  _210
REMARK   81  A    between atoms: _210  and  _211
REMARK   82  A    between atoms: _210  and  _213
REMARK   83  A    between atoms: _213  and  _214
REMARK   84  A    between atoms: _214  and  _215
REMARK   85  A    between atoms: _215  and  _216
REMARK   86  A    between atoms: _225  and  _227
REMARK   87  A    between atoms: _227  and  _228
REMARK   88  A    between atoms: _227  and  _230
REMARK   89  A    between atoms: _230  and  _231
REMARK   90  A    between atoms: _231  and  _232
REMARK   91  A    between atoms: _235  and  _237
REMARK   92  A    between atoms: _237  and  _238
REMARK   93  A    between atoms: _237  and  _240
REMARK   94  A    between atoms: _240  and  _241
REMARK   95  A    between atoms: _246  and  _248
REMARK   96  A    between atoms: _248  and  _249
REMARK   97  A    between atoms: _248  and  _251
REMARK   98  A    between atoms: _251  and  _252
REMARK   99  A    between atoms: _255  and  _257
REMARK  100  A    between atoms: _257  and  _258
REMARK  101  A    between atoms: _257  and  _260
REMARK  102  A    between atoms: _260  and  _261
REMARK  103  A    between atoms: _264  and  _266
REMARK  104  A    between atoms: _266  and  _267
REMARK  105  A    between atoms: _266  and  _269
REMARK  106  A    between atoms: _269  and  _270
REMARK  107  A    between atoms: _275  and  _277
REMARK  108  A    between atoms: _277  and  _278
REMARK  109  A    between atoms: _277  and  _280
REMARK  110  A    between atoms: _280  and  _281
REMARK  111  A    between atoms: _284  and  _286
REMARK  112  A    between atoms: _286  and  _287
REMARK  113  A    between atoms: _286  and  _289
REMARK  114  A    between atoms: _289  and  _290
REMARK  115  A    between atoms: _295  and  _297
REMARK  116  A    between atoms: _297  and  _298
REMARK  117  A    between atoms: _297  and  _300
REMARK  118  A    between atoms: _300  and  _301
REMARK  119  A    between atoms: _306  and  _308
REMARK  120  A    between atoms: _308  and  _309
REMARK  121  A    between atoms: _308  and  _311
REMARK  122  A    between atoms: _311  and  _312
REMARK  123  A    between atoms: _315  and  _317
REMARK  124  A    between atoms: _317  and  _318
REMARK  125  A    between atoms: _317  and  _320
REMARK  126  A    between atoms: _323  and  _325
REMARK  127  A    between atoms: _325  and  _326
REMARK  128  A    between atoms: _325  and  _328
REMARK  129  A    between atoms: _328  and  _329
REMARK  130  A    between atoms: _332  and  _334
REMARK  131  A    between atoms: _334  and  _335
REMARK  132  A    between atoms: _334  and  _337
REMARK  133  A    between atoms: _337  and  _338
REMARK  134  A    between atoms: _338  and  _339
REMARK  135  A    between atoms: _342  and  _344
REMARK  136  A    between atoms: _344  and  _345
REMARK  137  A    between atoms: _348  and  _350
REMARK  138  A    between atoms: _350  and  _351
REMARK  139  A    between atoms: _350  and  _353
REMARK  140  A    between atoms: _353  and  _354
REMARK  141  A    between atoms: _357  and  _359
REMARK  142  A    between atoms: _359  and  _360
REMARK  143  A    between atoms: _359  and  _362
REMARK  144  A    between atoms: _362  and  _363
REMARK  145  A    between atoms: _363  and  _364
REMARK  146  A    between atoms: _367  and  _369
REMARK  147  A    between atoms: _369  and  _370
REMARK  148  A    between atoms: _369  and  _372
REMARK  149  A    between atoms: _372  and  _373
REMARK  150  A    between atoms: _378  and  _380
REMARK  151  A    between atoms: _380  and  _381
REMARK  152  A    between atoms: _383  and  _385
REMARK  153  A    between atoms: _385  and  _386
REMARK  154  A    between atoms: _385  and  _388
REMARK  155  A    between atoms: _391  and  _393
REMARK  156  A    between atoms: _393  and  _394
REMARK  157  A    between atoms: _397  and  _399
REMARK  158  A    between atoms: _399  and  _400
REMARK  159  A    between atoms: _399  and  _402
REMARK  160  A    between atoms: _402  and  _403
REMARK  161  A    between atoms: _408  and  _410
REMARK  162  A    between atoms: _410  and  _411
REMARK  163  A    between atoms: _410  and  _413
REMARK  164  A    between atoms: _413  and  _414
REMARK  165  A    between atoms: _414  and  _415
REMARK  166  A    between atoms: _415  and  _416
REMARK  167  A    between atoms: _416  and  _417
REMARK  168  A    between atoms: _421  and  _423
REMARK  169  A    between atoms: _423  and  _424
REMARK  170  A    between atoms: _423  and  _426
REMARK  171  A    between atoms: _426  and  _427
REMARK  172  A    between atoms: _430  and  _432
REMARK  173  A    between atoms: _432  and  _433
REMARK  174  A    between atoms: _432  and  _435
REMARK  175  A    between atoms: _435  and  _436
REMARK  176  A    between atoms: _441  and  _443
REMARK  177  A    between atoms: _443  and  _444
REMARK  178  A    between atoms: _446  and  _448
REMARK  179  A    between atoms: _448  and  _449
REMARK  180  A    between atoms: _448  and  _451
REMARK  181  A    between atoms: _451  and  _452
REMARK  182  A    between atoms: _452  and  _453
REMARK  183  A    between atoms: _453  and  _454
REMARK  184  A    between atoms: _454  and  _455
REMARK  185  A    between atoms: _459  and  _461
REMARK  186  A    between atoms: _461  and  _462
REMARK  187  A    between atoms: _461  and  _464
REMARK  188  A    between atoms: _464  and  _465
REMARK  189  A    between atoms: _465  and  _466
REMARK  190  A    between atoms: _466  and  _467
REMARK  191  A    between atoms: _476  and  _478
REMARK  192  A    between atoms: _478  and  _479
REMARK  193  A    between atoms: _478  and  _481
REMARK  194  A    between atoms: _481  and  _482
REMARK  195  A    between atoms: _487  and  _488
REMARK  196  A    between atoms: _490  and  _492
REMARK  197  A    between atoms: _492  and  _493
REMARK  198  A    between atoms: _492  and  _495
REMARK  199  A    between atoms: _495  and  _496
REMARK  200  A    between atoms: _496  and  _497
REMARK  201  A    between atoms: _497  and  _498
REMARK  202  A    between atoms: _498  and  _499
REMARK  203  A    between atoms: _503  and  _505
REMARK  204  A    between atoms: _505  and  _506
REMARK  205  A    between atoms: _505  and  _508
REMARK  206  A    between atoms: _508  and  _509
REMARK  207  A    between atoms: _511  and  _513
REMARK  208  A    between atoms: _513  and  _514
REMARK  209  A    between atoms: _513  and  _516
REMARK  210  A    between atoms: _516  and  _517
REMARK  211  A    between atoms: _520  and  _522
REMARK  212  A    between atoms: _522  and  _523
REMARK  213  A    between atoms: _522  and  _525
REMARK  214  A    between atoms: _525  and  _526
REMARK  215  A    between atoms: _526  and  _527
REMARK  216  A    between atoms: _530  and  _532
REMARK  217  A    between atoms: _532  and  _533
REMARK  218  A    between atoms: _536  and  _538
REMARK  219  A    between atoms: _538  and  _539
REMARK  220  A    between atoms: _538  and  _541
REMARK  221  A    between atoms: _541  and  _542
REMARK  222  A    between atoms: _544  and  _546
REMARK  223  A    between atoms: _546  and  _547
REMARK  224  A    between atoms: _549  and  _551
REMARK  225  A    between atoms: _551  and  _552
REMARK  226  A    between atoms: _551  and  _554
REMARK  227  A    between atoms: _554  and  _555
REMARK  228  A    between atoms: _558  and  _560
REMARK  229  A    between atoms: _560  and  _561
REMARK  230  A    between atoms: _563  and  _565
REMARK  231  A    between atoms: _565  and  _566
REMARK  232  A    between atoms: _565  and  _568
REMARK  233  A    between atoms: _568  and  _569
REMARK  234  A    between atoms: _574  and  _576
REMARK  235  A    between atoms: _576  and  _577
REMARK  236  A    between atoms: _576  and  _579
REMARK  237  A    between atoms: _579  and  _580
REMARK  238  A    between atoms: _580  and  _581
REMARK  239  A    between atoms: _588  and  _589
REMARK  240  A    between atoms: _589  and  _605
REMARK  241  A    between atoms: _590  and  _592
REMARK  242  A    between atoms: _592  and  _593
REMARK  243  A    between atoms: _593  and  _594
REMARK  244  A    between atoms: _598  and  _600
REMARK  245  A    between atoms: _600  and  _601
REMARK  246  A    between atoms: _600  and  _608
REMARK  247  A    between atoms: _601  and  _602
REMARK  248  A    between atoms: _602  and  _603
REMARK  249  A    between atoms: _603  and  _604
REMARK  250  A    between atoms: _604  and  _605
REMARK  251  A    between atoms: _610  and  _612
REMARK  252  A    between atoms: _612  and  _613
REMARK  253  A    between atoms: _612  and  _615
REMARK  254  A    between atoms: _615  and  _616
REMARK  255  A    between atoms: _619  and  _621
REMARK  256  A    between atoms: _621  and  _622
REMARK  257  A    between atoms: _624  and  _626
REMARK  258  A    between atoms: _626  and  _627
REMARK  259  A    between atoms: _630  and  _632
REMARK  260  A    between atoms: _632  and  _633
REMARK  261  A    between atoms: _632  and  _635
REMARK  262  A    between atoms: _635  and  _636
REMARK  263  A    between atoms: _641  and  _642
REMARK                            x       y       z     vdW  Elec       q    Type
REMARK                         _______ _______ _______ _____ _____    ______ ____
ROOT
ATOM      1  O   HOH     1      26.906  19.352  28.932  0.00  0.00    +0.000 OA
ENDROOT
TORSDOF 0
REMARK  Name = ../refined-set-2016/2qrg/2qrg_pocket.pdb
REMARK  263 active torsions:
REMARK  status: ('A' for Active; 'I' for Inactive)
REMARK    1  A    between atoms: _1  and  _3
REMARK    2  A    between atoms: _3  and  _4
REMARK    3  A    between atoms: _3  and  _6
REMARK    4  A    between atoms: _6  and  _7
REMARK    5  A    between atoms: _12  and  _13
REMARK    6  A    between atoms: _15  and  _17
REMARK    7  A    between atoms: _17  and  _18
REMARK    8  A    between atoms: _17  and  _20
REMARK    9  A    between atoms: _20  and  _21
REMARK   10  A    between atoms: _24  and  _26
REMARK   11  A    between atoms: _26  and  _27
REMARK   12  A    between atoms: _26  and  _29
REMARK   13  A    between atoms: _29  and  _30
REMARK   14  A    between atoms: _30  and  _31
REMARK   15  A    between atoms: _34  and  _36
REMARK   16  A    between atoms: _36  and  _37
REMARK   17  A    between atoms: _36  and  _39
REMARK   18  A    between atoms: _39  and  _40
REMARK   19  A    between atoms: _45  and  _47
REMARK   20  A    between atoms: _47  and  _48
REMARK   21  A    between atoms: _50  and  _52
REMARK   22  A    between atoms: _52  and  _53
REMARK   23  A    between atoms: _55  and  _57
REMARK   24  A    between atoms: _57  and  _58
REMARK   25  A    between atoms: _57  and  _60
REMARK   26  A    between atoms: _60  and  _61
REMARK   27  A    between atoms: _64  and  _66
REMARK   28  A    between atoms: _66  and  _67
REMARK   29  A    between atoms: _69  and  _71
REMARK   30  A    between atoms: _71  and  _72
REMARK   31  A    between atoms: _71  and  _74
REMARK   32  A    between atoms: _74  and  _75
REMARK   33  A    between atoms: _75  and  _76
REMARK   34  A    between atoms: _76  and  _77
REMARK   35  A    between atoms: _86  and  _88
REMARK   36  A    between atoms: _88  and  _89
REMARK   37  A    between atoms: _88  and  _91
REMARK   38  A    between atoms: _91  and  _92
REMARK   39  A    between atoms: _95  and  _97
REMARK   40  A    between atoms: _97  and  _98
REMARK   41  A    between atoms: _101  and  _103
REMARK   42  A    between atoms: _103  and  _104
REMARK   43  A    between atoms: _103  and  _106
REMARK   44  A    between atoms: _106  and  _107
REMARK   45  A    between atoms: _113  and  _115
REMARK   46  A    between atoms: _115  and  _116
REMARK   47  A    between atoms: _115  and  _118
REMARK   48  A    between atoms: _118  and  _119
REMARK   49  A    between atoms: _122  and  _124
REMARK   50  A    between atoms: _124  and  _125
REMARK   51  A    between atoms: _124  and  _127
REMARK   52  A    between atoms: _127  and  _128
REMARK   53  A    between atoms: _133  and  _134
REMARK   54  A    between atoms: _137  and  _138
REMARK   55  A    between atoms: _143  and  _145
REMARK   56  A    between atoms: _145  and  _146
REMARK   57  A    between atoms: _145  and  _148
REMARK   58  A    between atoms: _148  and  _149
REMARK   59  A    between atoms: _154  and  _156
REMARK   60  A    between atoms: _156  and  _157
REMARK   61  A    between atoms: _156  and  _159
REMARK   62  A    between atoms: _159  and  _160
REMARK   63  A    between atoms: _163  and  _165
REMARK   64  A    between atoms: _165  and  _166
REMARK   65  A    between atoms: _165  and  _168
REMARK   66  A    between atoms: _168  and  _169
REMARK   67  A    between atoms: _174  and  _176
REMARK   68  A    between atoms: _176  and  _177
REMARK   69  A    between atoms: _176  and  _179
REMARK   70  A    between atoms: _179  and  _180
REMARK   71  A    between atoms: _186  and  _188
REMARK   72  A    between atoms: _188  and  _189
REMARK   73  A    between atoms: _188  and  _191
REMARK   74  A    between atoms: _191  and  _192
REMARK   75  A    between atoms: _198  and  _200
REMARK   76  A    between atoms: _200  and  _201
REMARK   77  A    between atoms: _200  and  _203
REMARK   78  A    between atoms: _203  and  _204
REMARK   79  A    between atoms: _204  and  _205
REMARK   80  A    between atoms: _208  and  _210
REMARK   81  A    between atoms: _210  and  _211
REMARK   82  A    between atoms: _210  and  _213
REMARK   83  A    between atoms: _213  and  _214
REMARK   84  A    between atoms: _214  and  _215
REMARK   85  A    between atoms: _215  and  _216
REMARK   86  A    between atoms: _225  and  _227
REMARK   87  A    between atoms: _227  and  _228
REMARK   88  A    between atoms: _227  and  _230
REMARK   89  A    between atoms: _230  and  _231
REMARK   90  A    between atoms: _231  and  _232
REMARK   91  A    between atoms: _235  and  _237
REMARK   92  A    between atoms: _237  and  _238
REMARK   93  A    between atoms: _237  and  _240
REMARK   94  A    between atoms: _240  and  _241
REMARK   95  A    between atoms: _246  and  _248
REMARK   96  A    between atoms: _248  and  _249
REMARK   97  A    between atoms: _248  and  _251
REMARK   98  A    between atoms: _251  and  _252
REMARK   99  A    between atoms: _255  and  _257
REMARK  100  A    between atoms: _257  and  _258
REMARK  101  A    between atoms: _257  and  _260
REMARK  102  A    between atoms: _260  and  _261
REMARK  103  A    between atoms: _264  and  _266
REMARK  104  A    between atoms: _266  and  _267
REMARK  105  A    between atoms: _266  and  _269
REMARK  106  A    between atoms: _269  and  _270
REMARK  107  A    between atoms: _275  and  _277
REMARK  108  A    between atoms: _277  and  _278
REMARK  109  A    between atoms: _277  and  _280
REMARK  110  A    between atoms: _280  and  _281
REMARK  111  A    between atoms: _284  and  _286
REMARK  112  A    between atoms: _286  and  _287
REMARK  113  A    between atoms: _286  and  _289
REMARK  114  A    between atoms: _289  and  _290
REMARK  115  A    between atoms: _295  and  _297
REMARK  116  A    between atoms: _297  and  _298
REMARK  117  A    between atoms: _297  and  _300
REMARK  118  A    between atoms: _300  and  _301
REMARK  119  A    between atoms: _306  and  _308
REMARK  120  A    between atoms: _308  and  _309
REMARK  121  A    between atoms: _308  and  _311
REMARK  122  A    between atoms: _311  and  _312
REMARK  123  A    between atoms: _315  and  _317
REMARK  124  A    between atoms: _317  and  _318
REMARK  125  A    between atoms: _317  and  _320
REMARK  126  A    between atoms: _323  and  _325
REMARK  127  A    between atoms: _325  and  _326
REMARK  128  A    between atoms: _325  and  _328
REMARK  129  A    between atoms: _328  and  _329
REMARK  130  A    between atoms: _332  and  _334
REMARK  131  A    between atoms: _334  and  _335
REMARK  132  A    between atoms: _334  and  _337
REMARK  133  A    between atoms: _337  and  _338
REMARK  134  A    between atoms: _338  and  _339
REMARK  135  A    between atoms: _342  and  _344
REMARK  136  A    between atoms: _344  and  _345
REMARK  137  A    between atoms: _348  and  _350
REMARK  138  A    between atoms: _350  and  _351
REMARK  139  A    between atoms: _350  and  _353
REMARK  140  A    between atoms: _353  and  _354
REMARK  141  A    between atoms: _357  and  _359
REMARK  142  A    between atoms: _359  and  _360
REMARK  143  A    between atoms: _359  and  _362
REMARK  144  A    between atoms: _362  and  _363
REMARK  145  A    between atoms: _363  and  _364
REMARK  146  A    between atoms: _367  and  _369
REMARK  147  A    between atoms: _369  and  _370
REMARK  148  A    between atoms: _369  and  _372
REMARK  149  A    between atoms: _372  and  _373
REMARK  150  A    between atoms: _378  and  _380
REMARK  151  A    between atoms: _380  and  _381
REMARK  152  A    between atoms: _383  and  _385
REMARK  153  A    between atoms: _385  and  _386
REMARK  154  A    between atoms: _385  and  _388
REMARK  155  A    between atoms: _391  and  _393
REMARK  156  A    between atoms: _393  and  _394
REMARK  157  A    between atoms: _397  and  _399
REMARK  158  A    between atoms: _399  and  _400
REMARK  159  A    between atoms: _399  and  _402
REMARK  160  A    between atoms: _402  and  _403
REMARK  161  A    between atoms: _408  and  _410
REMARK  162  A    between atoms: _410  and  _411
REMARK  163  A    between atoms: _410  and  _413
REMARK  164  A    between atoms: _413  and  _414
REMARK  165  A    between atoms: _414  and  _415
REMARK  166  A    between atoms: _415  and  _416
REMARK  167  A    between atoms: _416  and  _417
REMARK  168  A    between atoms: _421  and  _423
REMARK  169  A    between atoms: _423  and  _424
REMARK  170  A    between atoms: _423  and  _426
REMARK  171  A    between atoms: _426  and  _427
REMARK  172  A    between atoms: _430  and  _432
REMARK  173  A    between atoms: _432  and  _433
REMARK  174  A    between atoms: _432  and  _435
REMARK  175  A    between atoms: _435  and  _436
REMARK  176  A    between atoms: _441  and  _443
REMARK  177  A    between atoms: _443  and  _444
REMARK  178  A    between atoms: _446  and  _448
REMARK  179  A    between atoms: _448  and  _449
REMARK  180  A    between atoms: _448  and  _451
REMARK  181  A    between atoms: _451  and  _452
REMARK  182  A    between atoms: _452  and  _453
REMARK  183  A    between atoms: _453  and  _454
REMARK  184  A    between atoms: _454  and  _455
REMARK  185  A    between atoms: _459  and  _461
REMARK  186  A    between atoms: _461  and  _462
REMARK  187  A    between atoms: _461  and  _464
REMARK  188  A    between atoms: _464  and  _465
REMARK  189  A    between atoms: _465  and  _466
REMARK  190  A    between atoms: _466  and  _467
REMARK  191  A    between atoms: _476  and  _478
REMARK  192  A    between atoms: _478  and  _479
REMARK  193  A    between atoms: _478  and  _481
REMARK  194  A    between atoms: _481  and  _482
REMARK  195  A    between atoms: _487  and  _488
REMARK  196  A    between atoms: _490  and  _492
REMARK  197  A    between atoms: _492  and  _493
REMARK  198  A    between atoms: _492  and  _495
REMARK  199  A    between atoms: _495  and  _496
REMARK  200  A    between atoms: _496  and  _497
REMARK  201  A    between atoms: _497  and  _498
REMARK  202  A    between atoms: _498  and  _499
REMARK  203  A    between atoms: _503  and  _505
REMARK  204  A    between atoms: _505  and  _506
REMARK  205  A    between atoms: _505  and  _508
REMARK  206  A    between atoms: _508  and  _509
REMARK  207  A    between atoms: _511  and  _513
REMARK  208  A    between atoms: _513  and  _514
REMARK  209  A    between atoms: _513  and  _516
REMARK  210  A    between atoms: _516  and  _517
REMARK  211  A    between atoms: _520  and  _522
REMARK  212  A    between atoms: _522  and  _523
REMARK  213  A    between atoms: _522  and  _525
REMARK  214  A    between atoms: _525  and  _526
REMARK  215  A    between atoms: _526  and  _527
REMARK  216  A    between atoms: _530  and  _532
REMARK  217  A    between atoms: _532  and  _533
REMARK  218  A    between atoms: _536  and  _538
REMARK  219  A    between atoms: _538  and  _539
REMARK  220  A    between atoms: _538  and  _541
REMARK  221  A    between atoms: _541  and  _542
REMARK  222  A    between atoms: _544  and  _546
REMARK  223  A    between atoms: _546  and  _547
REMARK  224  A    between atoms: _549  and  _551
REMARK  225  A    between atoms: _551  and  _552
REMARK  226  A    between atoms: _551  and  _554
REMARK  227  A    between atoms: _554  and  _555
REMARK  228  A    between atoms: _558  and  _560
REMARK  229  A    between atoms: _560  and  _561
REMARK  230  A    between atoms: _563  and  _565
REMARK  231  A    between atoms: _565  and  _566
REMARK  232  A    between atoms: _565  and  _568
REMARK  233  A    between atoms: _568  and  _569
REMARK  234  A    between atoms: _574  and  _576
REMARK  235  A    between atoms: _576  and  _577
REMARK  236  A    between atoms: _576  and  _579
REMARK  237  A    between atoms: _579  and  _580
REMARK  238  A    between atoms: _580  and  _581
REMARK  239  A    between atoms: _588  and  _589
REMARK  240  A    between atoms: _589  and  _605
REMARK  241  A    between atoms: _590  and  _592
REMARK  242  A    between atoms: _592  and  _593
REMARK  243  A    between atoms: _593  and  _594
REMARK  244  A    between atoms: _598  and  _600
REMARK  245  A    between atoms: _600  and  _601
REMARK  246  A    between atoms: _600  and  _608
REMARK  247  A    between atoms: _601  and  _602
REMARK  248  A    between atoms: _602  and  _603
REMARK  249  A    between atoms: _603  and  _604
REMARK  250  A    between atoms: _604  and  _605
REMARK  251  A    between atoms: _610  and  _612
REMARK  252  A    between atoms: _612  and  _613
REMARK  253  A    between atoms: _612  and  _615
REMARK  254  A    between atoms: _615  and  _616
REMARK  255  A    between atoms: _619  and  _621
REMARK  256  A    between atoms: _621  and  _622
REMARK  257  A    between atoms: _624  and  _626
REMARK  258  A    between atoms: _626  and  _627
REMARK  259  A    between atoms: _630  and  _632
REMARK  260  A    between atoms: _632  and  _633
REMARK  261  A    between atoms: _632  and  _635
REMARK  262  A    between atoms: _635  and  _636
REMARK  263  A    between atoms: _641  and  _642
REMARK                            x       y       z     vdW  Elec       q    Type
REMARK                         _______ _______ _______ _____ _____    ______ ____
ROOT
ATOM      1  O   HOH     1      29.249  21.862  26.423  0.00  0.00    +0.000 OA
ENDROOT
TORSDOF 0
REMARK  Name = ../refined-set-2016/2qrg/2qrg_pocket.pdb
REMARK  263 active torsions:
REMARK  status: ('A' for Active; 'I' for Inactive)
REMARK    1  A    between atoms: _1  and  _3
REMARK    2  A    between atoms: _3  and  _4
REMARK    3  A    between atoms: _3  and  _6
REMARK    4  A    between atoms: _6  and  _7
REMARK    5  A    between atoms: _12  and  _13
REMARK    6  A    between atoms: _15  and  _17
REMARK    7  A    between atoms: _17  and  _18
REMARK    8  A    between atoms: _17  and  _20
REMARK    9  A    between atoms: _20  and  _21
REMARK   10  A    between atoms: _24  and  _26
REMARK   11  A    between atoms: _26  and  _27
REMARK   12  A    between atoms: _26  and  _29
REMARK   13  A    between atoms: _29  and  _30
REMARK   14  A    between atoms: _30  and  _31
REMARK   15  A    between atoms: _34  and  _36
REMARK   16  A    between atoms: _36  and  _37
REMARK   17  A    between atoms: _36  and  _39
REMARK   18  A    between atoms: _39  and  _40
REMARK   19  A    between atoms: _45  and  _47
REMARK   20  A    between atoms: _47  and  _48
REMARK   21  A    between atoms: _50  and  _52
REMARK   22  A    between atoms: _52  and  _53
REMARK   23  A    between atoms: _55  and  _57
REMARK   24  A    between atoms: _57  and  _58
REMARK   25  A    between atoms: _57  and  _60
REMARK   26  A    between atoms: _60  and  _61
REMARK   27  A    between atoms: _64  and  _66
REMARK   28  A    between atoms: _66  and  _67
REMARK   29  A    between atoms: _69  and  _71
REMARK   30  A    between atoms: _71  and  _72
REMARK   31  A    between atoms: _71  and  _74
REMARK   32  A    between atoms: _74  and  _75
REMARK   33  A    between atoms: _75  and  _76
REMARK   34  A    between atoms: _76  and  _77
REMARK   35  A    between atoms: _86  and  _88
REMARK   36  A    between atoms: _88  and  _89
REMARK   37  A    between atoms: _88  and  _91
REMARK   38  A    between atoms: _91  and  _92
REMARK   39  A    between atoms: _95  and  _97
REMARK   40  A    between atoms: _97  and  _98
REMARK   41  A    between atoms: _101  and  _103
REMARK   42  A    between atoms: _103  and  _104
REMARK   43  A    between atoms: _103  and  _106
REMARK   44  A    between atoms: _106  and  _107
REMARK   45  A    between atoms: _113  and  _115
REMARK   46  A    between atoms: _115  and  _116
REMARK   47  A    between atoms: _115  and  _118
REMARK   48  A    between atoms: _118  and  _119
REMARK   49  A    between atoms: _122  and  _124
REMARK   50  A    between atoms: _124  and  _125
REMARK   51  A    between atoms: _124  and  _127
REMARK   52  A    between atoms: _127  and  _128
REMARK   53  A    between atoms: _133  and  _134
REMARK   54  A    between atoms: _137  and  _138
REMARK   55  A    between atoms: _143  and  _145
REMARK   56  A    between atoms: _145  and  _146
REMARK   57  A    between atoms: _145  and  _148
REMARK   58  A    between atoms: _148  and  _149
REMARK   59  A    between atoms: _154  and  _156
REMARK   60  A    between atoms: _156  and  _157
REMARK   61  A    between atoms: _156  and  _159
REMARK   62  A    between atoms: _159  and  _160
REMARK   63  A    between atoms: _163  and  _165
REMARK   64  A    between atoms: _165  and  _166
REMARK   65  A    between atoms: _165  and  _168
REMARK   66  A    between atoms: _168  and  _169
REMARK   67  A    between atoms: _174  and  _176
REMARK   68  A    between atoms: _176  and  _177
REMARK   69  A    between atoms: _176  and  _179
REMARK   70  A    between atoms: _179  and  _180
REMARK   71  A    between atoms: _186  and  _188
REMARK   72  A    between atoms: _188  and  _189
REMARK   73  A    between atoms: _188  and  _191
REMARK   74  A    between atoms: _191  and  _192
REMARK   75  A    between atoms: _198  and  _200
REMARK   76  A    between atoms: _200  and  _201
REMARK   77  A    between atoms: _200  and  _203
REMARK   78  A    between atoms: _203  and  _204
REMARK   79  A    between atoms: _204  and  _205
REMARK   80  A    between atoms: _208  and  _210
REMARK   81  A    between atoms: _210  and  _211
REMARK   82  A    between atoms: _210  and  _213
REMARK   83  A    between atoms: _213  and  _214
REMARK   84  A    between atoms: _214  and  _215
REMARK   85  A    between atoms: _215  and  _216
REMARK   86  A    between atoms: _225  and  _227
REMARK   87  A    between atoms: _227  and  _228
REMARK   88  A    between atoms: _227  and  _230
REMARK   89  A    between atoms: _230  and  _231
REMARK   90  A    between atoms: _231  and  _232
REMARK   91  A    between atoms: _235  and  _237
REMARK   92  A    between atoms: _237  and  _238
REMARK   93  A    between atoms: _237  and  _240
REMARK   94  A    between atoms: _240  and  _241
REMARK   95  A    between atoms: _246  and  _248
REMARK   96  A    between atoms: _248  and  _249
REMARK   97  A    between atoms: _248  and  _251
REMARK   98  A    between atoms: _251  and  _252
REMARK   99  A    between atoms: _255  and  _257
REMARK  100  A    between atoms: _257  and  _258
REMARK  101  A    between atoms: _257  and  _260
REMARK  102  A    between atoms: _260  and  _261
REMARK  103  A    between atoms: _264  and  _266
REMARK  104  A    between atoms: _266  and  _267
REMARK  105  A    between atoms: _266  and  _269
REMARK  106  A    between atoms: _269  and  _270
REMARK  107  A    between atoms: _275  and  _277
REMARK  108  A    between atoms: _277  and  _278
REMARK  109  A    between atoms: _277  and  _280
REMARK  110  A    between atoms: _280  and  _281
REMARK  111  A    between atoms: _284  and  _286
REMARK  112  A    between atoms: _286  and  _287
REMARK  113  A    between atoms: _286  and  _289
REMARK  114  A    between atoms: _289  and  _290
REMARK  115  A    between atoms: _295  and  _297
REMARK  116  A    between atoms: _297  and  _298
REMARK  117  A    between atoms: _297  and  _300
REMARK  118  A    between atoms: _300  and  _301
REMARK  119  A    between atoms: _306  and  _308
REMARK  120  A    between atoms: _308  and  _309
REMARK  121  A    between atoms: _308  and  _311
REMARK  122  A    between atoms: _311  and  _312
REMARK  123  A    between atoms: _315  and  _317
REMARK  124  A    between atoms: _317  and  _318
REMARK  125  A    between atoms: _317  and  _320
REMARK  126  A    between atoms: _323  and  _325
REMARK  127  A    between atoms: _325  and  _326
REMARK  128  A    between atoms: _325  and  _328
REMARK  129  A    between atoms: _328  and  _329
REMARK  130  A    between atoms: _332  and  _334
REMARK  131  A    between atoms: _334  and  _335
REMARK  132  A    between atoms: _334  and  _337
REMARK  133  A    between atoms: _337  and  _338
REMARK  134  A    between atoms: _338  and  _339
REMARK  135  A    between atoms: _342  and  _344
REMARK  136  A    between atoms: _344  and  _345
REMARK  137  A    between atoms: _348  and  _350
REMARK  138  A    between atoms: _350  and  _351
REMARK  139  A    between atoms: _350  and  _353
REMARK  140  A    between atoms: _353  and  _354
REMARK  141  A    between atoms: _357  and  _359
REMARK  142  A    between atoms: _359  and  _360
REMARK  143  A    between atoms: _359  and  _362
REMARK  144  A    between atoms: _362  and  _363
REMARK  145  A    between atoms: _363  and  _364
REMARK  146  A    between atoms: _367  and  _369
REMARK  147  A    between atoms: _369  and  _370
REMARK  148  A    between atoms: _369  and  _372
REMARK  149  A    between atoms: _372  and  _373
REMARK  150  A    between atoms: _378  and  _380
REMARK  151  A    between atoms: _380  and  _381
REMARK  152  A    between atoms: _383  and  _385
REMARK  153  A    between atoms: _385  and  _386
REMARK  154  A    between atoms: _385  and  _388
REMARK  155  A    between atoms: _391  and  _393
REMARK  156  A    between atoms: _393  and  _394
REMARK  157  A    between atoms: _397  and  _399
REMARK  158  A    between atoms: _399  and  _400
REMARK  159  A    between atoms: _399  and  _402
REMARK  160  A    between atoms: _402  and  _403
REMARK  161  A    between atoms: _408  and  _410
REMARK  162  A    between atoms: _410  and  _411
REMARK  163  A    between atoms: _410  and  _413
REMARK  164  A    between atoms: _413  and  _414
REMARK  165  A    between atoms: _414  and  _415
REMARK  166  A    between atoms: _415  and  _416
REMARK  167  A    between atoms: _416  and  _417
REMARK  168  A    between atoms: _421  and  _423
REMARK  169  A    between atoms: _423  and  _424
REMARK  170  A    between atoms: _423  and  _426
REMARK  171  A    between atoms: _426  and  _427
REMARK  172  A    between atoms: _430  and  _432
REMARK  173  A    between atoms: _432  and  _433
REMARK  174  A    between atoms: _432  and  _435
REMARK  175  A    between atoms: _435  and  _436
REMARK  176  A    between atoms: _441  and  _443
REMARK  177  A    between atoms: _443  and  _444
REMARK  178  A    between atoms: _446  and  _448
REMARK  179  A    between atoms: _448  and  _449
REMARK  180  A    between atoms: _448  and  _451
REMARK  181  A    between atoms: _451  and  _452
REMARK  182  A    between atoms: _452  and  _453
REMARK  183  A    between atoms: _453  and  _454
REMARK  184  A    between atoms: _454  and  _455
REMARK  185  A    between atoms: _459  and  _461
REMARK  186  A    between atoms: _461  and  _462
REMARK  187  A    between atoms: _461  and  _464
REMARK  188  A    between atoms: _464  and  _465
REMARK  189  A    between atoms: _465  and  _466
REMARK  190  A    between atoms: _466  and  _467
REMARK  191  A    between atoms: _476  and  _478
REMARK  192  A    between atoms: _478  and  _479
REMARK  193  A    between atoms: _478  and  _481
REMARK  194  A    between atoms: _481  and  _482
REMARK  195  A    between atoms: _487  and  _488
REMARK  196  A    between atoms: _490  and  _492
REMARK  197  A    between atoms: _492  and  _493
REMARK  198  A    between atoms: _492  and  _495
REMARK  199  A    between atoms: _495  and  _496
REMARK  200  A    between atoms: _496  and  _497
REMARK  201  A    between atoms: _497  and  _498
REMARK  202  A    between atoms: _498  and  _499
REMARK  203  A    between atoms: _503  and  _505
REMARK  204  A    between atoms: _505  and  _506
REMARK  205  A    between atoms: _505  and  _508
REMARK  206  A    between atoms: _508  and  _509
REMARK  207  A    between atoms: _511  and  _513
REMARK  208  A    between atoms: _513  and  _514
REMARK  209  A    between atoms: _513  and  _516
REMARK  210  A    between atoms: _516  and  _517
REMARK  211  A    between atoms: _520  and  _522
REMARK  212  A    between atoms: _522  and  _523
REMARK  213  A    between atoms: _522  and  _525
REMARK  214  A    between atoms: _525  and  _526
REMARK  215  A    between atoms: _526  and  _527
REMARK  216  A    between atoms: _530  and  _532
REMARK  217  A    between atoms: _532  and  _533
REMARK  218  A    between atoms: _536  and  _538
REMARK  219  A    between atoms: _538  and  _539
REMARK  220  A    between atoms: _538  and  _541
REMARK  221  A    between atoms: _541  and  _542
REMARK  222  A    between atoms: _544  and  _546
REMARK  223  A    between atoms: _546  and  _547
REMARK  224  A    between atoms: _549  and  _551
REMARK  225  A    between atoms: _551  and  _552
REMARK  226  A    between atoms: _551  and  _554
REMARK  227  A    between atoms: _554  and  _555
REMARK  228  A    between atoms: _558  and  _560
REMARK  229  A    between atoms: _560  and  _561
REMARK  230  A    between atoms: _563  and  _565
REMARK  231  A    between atoms: _565  and  _566
REMARK  232  A    between atoms: _565  and  _568
REMARK  233  A    between atoms: _568  and  _569
REMARK  234  A    between atoms: _574  and  _576
REMARK  235  A    between atoms: _576  and  _577
REMARK  236  A    between atoms: _576  and  _579
REMARK  237  A    between atoms: _579  and  _580
REMARK  238  A    between atoms: _580  and  _581
REMARK  239  A    between atoms: _588  and  _589
REMARK  240  A    between atoms: _589  and  _605
REMARK  241  A    between atoms: _590  and  _592
REMARK  242  A    between atoms: _592  and  _593
REMARK  243  A    between atoms: _593  and  _594
REMARK  244  A    between atoms: _598  and  _600
REMARK  245  A    between atoms: _600  and  _601
REMARK  246  A    between atoms: _600  and  _608
REMARK  247  A    between atoms: _601  and  _602
REMARK  248  A    between atoms: _602  and  _603
REMARK  249  A    between atoms: _603  and  _604
REMARK  250  A    between atoms: _604  and  _605
REMARK  251  A    between atoms: _610  and  _612
REMARK  252  A    between atoms: _612  and  _613
REMARK  253  A    between atoms: _612  and  _615
REMARK  254  A    between atoms: _615  and  _616
REMARK  255  A    between atoms: _619  and  _621
REMARK  256  A    between atoms: _621  and  _622
REMARK  257  A    between atoms: _624  and  _626
REMARK  258  A    between atoms: _626  and  _627
REMARK  259  A    between atoms: _630  and  _632
REMARK  260  A    between atoms: _632  and  _633
REMARK  261  A    between atoms: _632  and  _635
REMARK  262  A    between atoms: _635  and  _636
REMARK  263  A    between atoms: _641  and  _642
REMARK                            x       y       z     vdW  Elec       q    Type
REMARK                         _______ _______ _______ _____ _____    ______ ____
ROOT
ATOM      1  O   HOH     1      38.203  29.649  37.384  0.00  0.00    +0.000 OA
ENDROOT
TORSDOF 0
REMARK  Name = ../refined-set-2016/2qrg/2qrg_pocket.pdb
REMARK  263 active torsions:
REMARK  status: ('A' for Active; 'I' for Inactive)
REMARK    1  A    between atoms: _1  and  _3
REMARK    2  A    between atoms: _3  and  _4
REMARK    3  A    between atoms: _3  and  _6
REMARK    4  A    between atoms: _6  and  _7
REMARK    5  A    between atoms: _12  and  _13
REMARK    6  A    between atoms: _15  and  _17
REMARK    7  A    between atoms: _17  and  _18
REMARK    8  A    between atoms: _17  and  _20
REMARK    9  A    between atoms: _20  and  _21
REMARK   10  A    between atoms: _24  and  _26
REMARK   11  A    between atoms: _26  and  _27
REMARK   12  A    between atoms: _26  and  _29
REMARK   13  A    between atoms: _29  and  _30
REMARK   14  A    between atoms: _30  and  _31
REMARK   15  A    between atoms: _34  and  _36
REMARK   16  A    between atoms: _36  and  _37
REMARK   17  A    between atoms: _36  and  _39
REMARK   18  A    between atoms: _39  and  _40
REMARK   19  A    between atoms: _45  and  _47
REMARK   20  A    between atoms: _47  and  _48
REMARK   21  A    between atoms: _50  and  _52
REMARK   22  A    between atoms: _52  and  _53
REMARK   23  A    between atoms: _55  and  _57
REMARK   24  A    between atoms: _57  and  _58
REMARK   25  A    between atoms: _57  and  _60
REMARK   26  A    between atoms: _60  and  _61
REMARK   27  A    between atoms: _64  and  _66
REMARK   28  A    between atoms: _66  and  _67
REMARK   29  A    between atoms: _69  and  _71
REMARK   30  A    between atoms: _71  and  _72
REMARK   31  A    between atoms: _71  and  _74
REMARK   32  A    between atoms: _74  and  _75
REMARK   33  A    between atoms: _75  and  _76
REMARK   34  A    between atoms: _76  and  _77
REMARK   35  A    between atoms: _86  and  _88
REMARK   36  A    between atoms: _88  and  _89
REMARK   37  A    between atoms: _88  and  _91
REMARK   38  A    between atoms: _91  and  _92
REMARK   39  A    between atoms: _95  and  _97
REMARK   40  A    between atoms: _97  and  _98
REMARK   41  A    between atoms: _101  and  _103
REMARK   42  A    between atoms: _103  and  _104
REMARK   43  A    between atoms: _103  and  _106
REMARK   44  A    between atoms: _106  and  _107
REMARK   45  A    between atoms: _113  and  _115
REMARK   46  A    between atoms: _115  and  _116
REMARK   47  A    between atoms: _115  and  _118
REMARK   48  A    between atoms: _118  and  _119
REMARK   49  A    between atoms: _122  and  _124
REMARK   50  A    between atoms: _124  and  _125
REMARK   51  A    between atoms: _124  and  _127
REMARK   52  A    between atoms: _127  and  _128
REMARK   53  A    between atoms: _133  and  _134
REMARK   54  A    between atoms: _137  and  _138
REMARK   55  A    between atoms: _143  and  _145
REMARK   56  A    between atoms: _145  and  _146
REMARK   57  A    between atoms: _145  and  _148
REMARK   58  A    between atoms: _148  and  _149
REMARK   59  A    between atoms: _154  and  _156
REMARK   60  A    between atoms: _156  and  _157
REMARK   61  A    between atoms: _156  and  _159
REMARK   62  A    between atoms: _159  and  _160
REMARK   63  A    between atoms: _163  and  _165
REMARK   64  A    between atoms: _165  and  _166
REMARK   65  A    between atoms: _165  and  _168
REMARK   66  A    between atoms: _168  and  _169
REMARK   67  A    between atoms: _174  and  _176
REMARK   68  A    between atoms: _176  and  _177
REMARK   69  A    between atoms: _176  and  _179
REMARK   70  A    between atoms: _179  and  _180
REMARK   71  A    between atoms: _186  and  _188
REMARK   72  A    between atoms: _188  and  _189
REMARK   73  A    between atoms: _188  and  _191
REMARK   74  A    between atoms: _191  and  _192
REMARK   75  A    between atoms: _198  and  _200
REMARK   76  A    between atoms: _200  and  _201
REMARK   77  A    between atoms: _200  and  _203
REMARK   78  A    between atoms: _203  and  _204
REMARK   79  A    between atoms: _204  and  _205
REMARK   80  A    between atoms: _208  and  _210
REMARK   81  A    between atoms: _210  and  _211
REMARK   82  A    between atoms: _210  and  _213
REMARK   83  A    between atoms: _213  and  _214
REMARK   84  A    between atoms: _214  and  _215
REMARK   85  A    between atoms: _215  and  _216
REMARK   86  A    between atoms: _225  and  _227
REMARK   87  A    between atoms: _227  and  _228
REMARK   88  A    between atoms: _227  and  _230
REMARK   89  A    between atoms: _230  and  _231
REMARK   90  A    between atoms: _231  and  _232
REMARK   91  A    between atoms: _235  and  _237
REMARK   92  A    between atoms: _237  and  _238
REMARK   93  A    between atoms: _237  and  _240
REMARK   94  A    between atoms: _240  and  _241
REMARK   95  A    between atoms: _246  and  _248
REMARK   96  A    between atoms: _248  and  _249
REMARK   97  A    between atoms: _248  and  _251
REMARK   98  A    between atoms: _251  and  _252
REMARK   99  A    between atoms: _255  and  _257
REMARK  100  A    between atoms: _257  and  _258
REMARK  101  A    between atoms: _257  and  _260
REMARK  102  A    between atoms: _260  and  _261
REMARK  103  A    between atoms: _264  and  _266
REMARK  104  A    between atoms: _266  and  _267
REMARK  105  A    between atoms: _266  and  _269
REMARK  106  A    between atoms: _269  and  _270
REMARK  107  A    between atoms: _275  and  _277
REMARK  108  A    between atoms: _277  and  _278
REMARK  109  A    between atoms: _277  and  _280
REMARK  110  A    between atoms: _280  and  _281
REMARK  111  A    between atoms: _284  and  _286
REMARK  112  A    between atoms: _286  and  _287
REMARK  113  A    between atoms: _286  and  _289
REMARK  114  A    between atoms: _289  and  _290
REMARK  115  A    between atoms: _295  and  _297
REMARK  116  A    between atoms: _297  and  _298
REMARK  117  A    between atoms: _297  and  _300
REMARK  118  A    between atoms: _300  and  _301
REMARK  119  A    between atoms: _306  and  _308
REMARK  120  A    between atoms: _308  and  _309
REMARK  121  A    between atoms: _308  and  _311
REMARK  122  A    between atoms: _311  and  _312
REMARK  123  A    between atoms: _315  and  _317
REMARK  124  A    between atoms: _317  and  _318
REMARK  125  A    between atoms: _317  and  _320
REMARK  126  A    between atoms: _323  and  _325
REMARK  127  A    between atoms: _325  and  _326
REMARK  128  A    between atoms: _325  and  _328
REMARK  129  A    between atoms: _328  and  _329
REMARK  130  A    between atoms: _332  and  _334
REMARK  131  A    between atoms: _334  and  _335
REMARK  132  A    between atoms: _334  and  _337
REMARK  133  A    between atoms: _337  and  _338
REMARK  134  A    between atoms: _338  and  _339
REMARK  135  A    between atoms: _342  and  _344
REMARK  136  A    between atoms: _344  and  _345
REMARK  137  A    between atoms: _348  and  _350
REMARK  138  A    between atoms: _350  and  _351
REMARK  139  A    between atoms: _350  and  _353
REMARK  140  A    between atoms: _353  and  _354
REMARK  141  A    between atoms: _357  and  _359
REMARK  142  A    between atoms: _359  and  _360
REMARK  143  A    between atoms: _359  and  _362
REMARK  144  A    between atoms: _362  and  _363
REMARK  145  A    between atoms: _363  and  _364
REMARK  146  A    between atoms: _367  and  _369
REMARK  147  A    between atoms: _369  and  _370
REMARK  148  A    between atoms: _369  and  _372
REMARK  149  A    between atoms: _372  and  _373
REMARK  150  A    between atoms: _378  and  _380
REMARK  151  A    between atoms: _380  and  _381
REMARK  152  A    between atoms: _383  and  _385
REMARK  153  A    between atoms: _385  and  _386
REMARK  154  A    between atoms: _385  and  _388
REMARK  155  A    between atoms: _391  and  _393
REMARK  156  A    between atoms: _393  and  _394
REMARK  157  A    between atoms: _397  and  _399
REMARK  158  A    between atoms: _399  and  _400
REMARK  159  A    between atoms: _399  and  _402
REMARK  160  A    between atoms: _402  and  _403
REMARK  161  A    between atoms: _408  and  _410
REMARK  162  A    between atoms: _410  and  _411
REMARK  163  A    between atoms: _410  and  _413
REMARK  164  A    between atoms: _413  and  _414
REMARK  165  A    between atoms: _414  and  _415
REMARK  166  A    between atoms: _415  and  _416
REMARK  167  A    between atoms: _416  and  _417
REMARK  168  A    between atoms: _421  and  _423
REMARK  169  A    between atoms: _423  and  _424
REMARK  170  A    between atoms: _423  and  _426
REMARK  171  A    between atoms: _426  and  _427
REMARK  172  A    between atoms: _430  and  _432
REMARK  173  A    between atoms: _432  and  _433
REMARK  174  A    between atoms: _432  and  _435
REMARK  175  A    between atoms: _435  and  _436
REMARK  176  A    between atoms: _441  and  _443
REMARK  177  A    between atoms: _443  and  _444
REMARK  178  A    between atoms: _446  and  _448
REMARK  179  A    between atoms: _448  and  _449
REMARK  180  A    between atoms: _448  and  _451
REMARK  181  A    between atoms: _451  and  _452
REMARK  182  A    between atoms: _452  and  _453
REMARK  183  A    between atoms: _453  and  _454
REMARK  184  A    between atoms: _454  and  _455
REMARK  185  A    between atoms: _459  and  _461
REMARK  186  A    between atoms: _461  and  _462
REMARK  187  A    between atoms: _461  and  _464
REMARK  188  A    between atoms: _464  and  _465
REMARK  189  A    between atoms: _465  and  _466
REMARK  190  A    between atoms: _466  and  _467
REMARK  191  A    between atoms: _476  and  _478
REMARK  192  A    between atoms: _478  and  _479
REMARK  193  A    between atoms: _478  and  _481
REMARK  194  A    between atoms: _481  and  _482
REMARK  195  A    between atoms: _487  and  _488
REMARK  196  A    between atoms: _490  and  _492
REMARK  197  A    between atoms: _492  and  _493
REMARK  198  A    between atoms: _492  and  _495
REMARK  199  A    between atoms: _495  and  _496
REMARK  200  A    between atoms: _496  and  _497
REMARK  201  A    between atoms: _497  and  _498
REMARK  202  A    between atoms: _498  and  _499
REMARK  203  A    between atoms: _503  and  _505
REMARK  204  A    between atoms: _505  and  _506
REMARK  205  A    between atoms: _505  and  _508
REMARK  206  A    between atoms: _508  and  _509
REMARK  207  A    between atoms: _511  and  _513
REMARK  208  A    between atoms: _513  and  _514
REMARK  209  A    between atoms: _513  and  _516
REMARK  210  A    between atoms: _516  and  _517
REMARK  211  A    between atoms: _520  and  _522
REMARK  212  A    between atoms: _522  and  _523
REMARK  213  A    between atoms: _522  and  _525
REMARK  214  A    between atoms: _525  and  _526
REMARK  215  A    between atoms: _526  and  _527
REMARK  216  A    between atoms: _530  and  _532
REMARK  217  A    between atoms: _532  and  _533
REMARK  218  A    between atoms: _536  and  _538
REMARK  219  A    between atoms: _538  and  _539
REMARK  220  A    between atoms: _538  and  _541
REMARK  221  A    between atoms: _541  and  _542
REMARK  222  A    between atoms: _544  and  _546
REMARK  223  A    between atoms: _546  and  _547
REMARK  224  A    between atoms: _549  and  _551
REMARK  225  A    between atoms: _551  and  _552
REMARK  226  A    between atoms: _551  and  _554
REMARK  227  A    between atoms: _554  and  _555
REMARK  228  A    between atoms: _558  and  _560
REMARK  229  A    between atoms: _560  and  _561
REMARK  230  A    between atoms: _563  and  _565
REMARK  231  A    between atoms: _565  and  _566
REMARK  232  A    between atoms: _565  and  _568
REMARK  233  A    between atoms: _568  and  _569
REMARK  234  A    between atoms: _574  and  _576
REMARK  235  A    between atoms: _576  and  _577
REMARK  236  A    between atoms: _576  and  _579
REMARK  237  A    between atoms: _579  and  _580
REMARK  238  A    between atoms: _580  and  _581
REMARK  239  A    between atoms: _588  and  _589
REMARK  240  A    between atoms: _589  and  _605
REMARK  241  A    between atoms: _590  and  _592
REMARK  242  A    between atoms: _592  and  _593
REMARK  243  A    between atoms: _593  and  _594
REMARK  244  A    between atoms: _598  and  _600
REMARK  245  A    between atoms: _600  and  _601
REMARK  246  A    between atoms: _600  and  _608
REMARK  247  A    between atoms: _601  and  _602
REMARK  248  A    between atoms: _602  and  _603
REMARK  249  A    between atoms: _603  and  _604
REMARK  250  A    between atoms: _604  and  _605
REMARK  251  A    between atoms: _610  and  _612
REMARK  252  A    between atoms: _612  and  _613
REMARK  253  A    between atoms: _612  and  _615
REMARK  254  A    between atoms: _615  and  _616
REMARK  255  A    between atoms: _619  and  _621
REMARK  256  A    between atoms: _621  and  _622
REMARK  257  A    between atoms: _624  and  _626
REMARK  258  A    between atoms: _626  and  _627
REMARK  259  A    between atoms: _630  and  _632
REMARK  260  A    between atoms: _632  and  _633
REMARK  261  A    between atoms: _632  and  _635
REMARK  262  A    between atoms: _635  and  _636
REMARK  263  A    between atoms: _641  and  _642
REMARK                            x       y       z     vdW  Elec       q    Type
REMARK                         _______ _______ _______ _____ _____    ______ ____
ROOT
ATOM      1  O   HOH     1      36.052  23.832  37.329  0.00  0.00    +0.000 OA
ENDROOT
TORSDOF 0
REMARK  Name = ../refined-set-2016/2qrg/2qrg_pocket.pdb
REMARK  263 active torsions:
REMARK  status: ('A' for Active; 'I' for Inactive)
REMARK    1  A    between atoms: _1  and  _3
REMARK    2  A    between atoms: _3  and  _4
REMARK    3  A    between atoms: _3  and  _6
REMARK    4  A    between atoms: _6  and  _7
REMARK    5  A    between atoms: _12  and  _13
REMARK    6  A    between atoms: _15  and  _17
REMARK    7  A    between atoms: _17  and  _18
REMARK    8  A    between atoms: _17  and  _20
REMARK    9  A    between atoms: _20  and  _21
REMARK   10  A    between atoms: _24  and  _26
REMARK   11  A    between atoms: _26  and  _27
REMARK   12  A    between atoms: _26  and  _29
REMARK   13  A    between atoms: _29  and  _30
REMARK   14  A    between atoms: _30  and  _31
REMARK   15  A    between atoms: _34  and  _36
REMARK   16  A    between atoms: _36  and  _37
REMARK   17  A    between atoms: _36  and  _39
REMARK   18  A    between atoms: _39  and  _40
REMARK   19  A    between atoms: _45  and  _47
REMARK   20  A    between atoms: _47  and  _48
REMARK   21  A    between atoms: _50  and  _52
REMARK   22  A    between atoms: _52  and  _53
REMARK   23  A    between atoms: _55  and  _57
REMARK   24  A    between atoms: _57  and  _58
REMARK   25  A    between atoms: _57  and  _60
REMARK   26  A    between atoms: _60  and  _61
REMARK   27  A    between atoms: _64  and  _66
REMARK   28  A    between atoms: _66  and  _67
REMARK   29  A    between atoms: _69  and  _71
REMARK   30  A    between atoms: _71  and  _72
REMARK   31  A    between atoms: _71  and  _74
REMARK   32  A    between atoms: _74  and  _75
REMARK   33  A    between atoms: _75  and  _76
REMARK   34  A    between atoms: _76  and  _77
REMARK   35  A    between atoms: _86  and  _88
REMARK   36  A    between atoms: _88  and  _89
REMARK   37  A    between atoms: _88  and  _91
REMARK   38  A    between atoms: _91  and  _92
REMARK   39  A    between atoms: _95  and  _97
REMARK   40  A    between atoms: _97  and  _98
REMARK   41  A    between atoms: _101  and  _103
REMARK   42  A    between atoms: _103  and  _104
REMARK   43  A    between atoms: _103  and  _106
REMARK   44  A    between atoms: _106  and  _107
REMARK   45  A    between atoms: _113  and  _115
REMARK   46  A    between atoms: _115  and  _116
REMARK   47  A    between atoms: _115  and  _118
REMARK   48  A    between atoms: _118  and  _119
REMARK   49  A    between atoms: _122  and  _124
REMARK   50  A    between atoms: _124  and  _125
REMARK   51  A    between atoms: _124  and  _127
REMARK   52  A    between atoms: _127  and  _128
REMARK   53  A    between atoms: _133  and  _134
REMARK   54  A    between atoms: _137  and  _138
REMARK   55  A    between atoms: _143  and  _145
REMARK   56  A    between atoms: _145  and  _146
REMARK   57  A    between atoms: _145  and  _148
REMARK   58  A    between atoms: _148  and  _149
REMARK   59  A    between atoms: _154  and  _156
REMARK   60  A    between atoms: _156  and  _157
REMARK   61  A    between atoms: _156  and  _159
REMARK   62  A    between atoms: _159  and  _160
REMARK   63  A    between atoms: _163  and  _165
REMARK   64  A    between atoms: _165  and  _166
REMARK   65  A    between atoms: _165  and  _168
REMARK   66  A    between atoms: _168  and  _169
REMARK   67  A    between atoms: _174  and  _176
REMARK   68  A    between atoms: _176  and  _177
REMARK   69  A    between atoms: _176  and  _179
REMARK   70  A    between atoms: _179  and  _180
REMARK   71  A    between atoms: _186  and  _188
REMARK   72  A    between atoms: _188  and  _189
REMARK   73  A    between atoms: _188  and  _191
REMARK   74  A    between atoms: _191  and  _192
REMARK   75  A    between atoms: _198  and  _200
REMARK   76  A    between atoms: _200  and  _201
REMARK   77  A    between atoms: _200  and  _203
REMARK   78  A    between atoms: _203  and  _204
REMARK   79  A    between atoms: _204  and  _205
REMARK   80  A    between atoms: _208  and  _210
REMARK   81  A    between atoms: _210  and  _211
REMARK   82  A    between atoms: _210  and  _213
REMARK   83  A    between atoms: _213  and  _214
REMARK   84  A    between atoms: _214  and  _215
REMARK   85  A    between atoms: _215  and  _216
REMARK   86  A    between atoms: _225  and  _227
REMARK   87  A    between atoms: _227  and  _228
REMARK   88  A    between atoms: _227  and  _230
REMARK   89  A    between atoms: _230  and  _231
REMARK   90  A    between atoms: _231  and  _232
REMARK   91  A    between atoms: _235  and  _237
REMARK   92  A    between atoms: _237  and  _238
REMARK   93  A    between atoms: _237  and  _240
REMARK   94  A    between atoms: _240  and  _241
REMARK   95  A    between atoms: _246  and  _248
REMARK   96  A    between atoms: _248  and  _249
REMARK   97  A    between atoms: _248  and  _251
REMARK   98  A    between atoms: _251  and  _252
REMARK   99  A    between atoms: _255  and  _257
REMARK  100  A    between atoms: _257  and  _258
REMARK  101  A    between atoms: _257  and  _260
REMARK  102  A    between atoms: _260  and  _261
REMARK  103  A    between atoms: _264  and  _266
REMARK  104  A    between atoms: _266  and  _267
REMARK  105  A    between atoms: _266  and  _269
REMARK  106  A    between atoms: _269  and  _270
REMARK  107  A    between atoms: _275  and  _277
REMARK  108  A    between atoms: _277  and  _278
REMARK  109  A    between atoms: _277  and  _280
REMARK  110  A    between atoms: _280  and  _281
REMARK  111  A    between atoms: _284  and  _286
REMARK  112  A    between atoms: _286  and  _287
REMARK  113  A    between atoms: _286  and  _289
REMARK  114  A    between atoms: _289  and  _290
REMARK  115  A    between atoms: _295  and  _297
REMARK  116  A    between atoms: _297  and  _298
REMARK  117  A    between atoms: _297  and  _300
REMARK  118  A    between atoms: _300  and  _301
REMARK  119  A    between atoms: _306  and  _308
REMARK  120  A    between atoms: _308  and  _309
REMARK  121  A    between atoms: _308  and  _311
REMARK  122  A    between atoms: _311  and  _312
REMARK  123  A    between atoms: _315  and  _317
REMARK  124  A    between atoms: _317  and  _318
REMARK  125  A    between atoms: _317  and  _320
REMARK  126  A    between atoms: _323  and  _325
REMARK  127  A    between atoms: _325  and  _326
REMARK  128  A    between atoms: _325  and  _328
REMARK  129  A    between atoms: _328  and  _329
REMARK  130  A    between atoms: _332  and  _334
REMARK  131  A    between atoms: _334  and  _335
REMARK  132  A    between atoms: _334  and  _337
REMARK  133  A    between atoms: _337  and  _338
REMARK  134  A    between atoms: _338  and  _339
REMARK  135  A    between atoms: _342  and  _344
REMARK  136  A    between atoms: _344  and  _345
REMARK  137  A    between atoms: _348  and  _350
REMARK  138  A    between atoms: _350  and  _351
REMARK  139  A    between atoms: _350  and  _353
REMARK  140  A    between atoms: _353  and  _354
REMARK  141  A    between atoms: _357  and  _359
REMARK  142  A    between atoms: _359  and  _360
REMARK  143  A    between atoms: _359  and  _362
REMARK  144  A    between atoms: _362  and  _363
REMARK  145  A    between atoms: _363  and  _364
REMARK  146  A    between atoms: _367  and  _369
REMARK  147  A    between atoms: _369  and  _370
REMARK  148  A    between atoms: _369  and  _372
REMARK  149  A    between atoms: _372  and  _373
REMARK  150  A    between atoms: _378  and  _380
REMARK  151  A    between atoms: _380  and  _381
REMARK  152  A    between atoms: _383  and  _385
REMARK  153  A    between atoms: _385  and  _386
REMARK  154  A    between atoms: _385  and  _388
REMARK  155  A    between atoms: _391  and  _393
REMARK  156  A    between atoms: _393  and  _394
REMARK  157  A    between atoms: _397  and  _399
REMARK  158  A    between atoms: _399  and  _400
REMARK  159  A    between atoms: _399  and  _402
REMARK  160  A    between atoms: _402  and  _403
REMARK  161  A    between atoms: _408  and  _410
REMARK  162  A    between atoms: _410  and  _411
REMARK  163  A    between atoms: _410  and  _413
REMARK  164  A    between atoms: _413  and  _414
REMARK  165  A    between atoms: _414  and  _415
REMARK  166  A    between atoms: _415  and  _416
REMARK  167  A    between atoms: _416  and  _417
REMARK  168  A    between atoms: _421  and  _423
REMARK  169  A    between atoms: _423  and  _424
REMARK  170  A    between atoms: _423  and  _426
REMARK  171  A    between atoms: _426  and  _427
REMARK  172  A    between atoms: _430  and  _432
REMARK  173  A    between atoms: _432  and  _433
REMARK  174  A    between atoms: _432  and  _435
REMARK  175  A    between atoms: _435  and  _436
REMARK  176  A    between atoms: _441  and  _443
REMARK  177  A    between atoms: _443  and  _444
REMARK  178  A    between atoms: _446  and  _448
REMARK  179  A    between atoms: _448  and  _449
REMARK  180  A    between atoms: _448  and  _451
REMARK  181  A    between atoms: _451  and  _452
REMARK  182  A    between atoms: _452  and  _453
REMARK  183  A    between atoms: _453  and  _454
REMARK  184  A    between atoms: _454  and  _455
REMARK  185  A    between atoms: _459  and  _461
REMARK  186  A    between atoms: _461  and  _462
REMARK  187  A    between atoms: _461  and  _464
REMARK  188  A    between atoms: _464  and  _465
REMARK  189  A    between atoms: _465  and  _466
REMARK  190  A    between atoms: _466  and  _467
REMARK  191  A    between atoms: _476  and  _478
REMARK  192  A    between atoms: _478  and  _479
REMARK  193  A    between atoms: _478  and  _481
REMARK  194  A    between atoms: _481  and  _482
REMARK  195  A    between atoms: _487  and  _488
REMARK  196  A    between atoms: _490  and  _492
REMARK  197  A    between atoms: _492  and  _493
REMARK  198  A    between atoms: _492  and  _495
REMARK  199  A    between atoms: _495  and  _496
REMARK  200  A    between atoms: _496  and  _497
REMARK  201  A    between atoms: _497  and  _498
REMARK  202  A    between atoms: _498  and  _499
REMARK  203  A    between atoms: _503  and  _505
REMARK  204  A    between atoms: _505  and  _506
REMARK  205  A    between atoms: _505  and  _508
REMARK  206  A    between atoms: _508  and  _509
REMARK  207  A    between atoms: _511  and  _513
REMARK  208  A    between atoms: _513  and  _514
REMARK  209  A    between atoms: _513  and  _516
REMARK  210  A    between atoms: _516  and  _517
REMARK  211  A    between atoms: _520  and  _522
REMARK  212  A    between atoms: _522  and  _523
REMARK  213  A    between atoms: _522  and  _525
REMARK  214  A    between atoms: _525  and  _526
REMARK  215  A    between atoms: _526  and  _527
REMARK  216  A    between atoms: _530  and  _532
REMARK  217  A    between atoms: _532  and  _533
REMARK  218  A    between atoms: _536  and  _538
REMARK  219  A    between atoms: _538  and  _539
REMARK  220  A    between atoms: _538  and  _541
REMARK  221  A    between atoms: _541  and  _542
REMARK  222  A    between atoms: _544  and  _546
REMARK  223  A    between atoms: _546  and  _547
REMARK  224  A    between atoms: _549  and  _551
REMARK  225  A    between atoms: _551  and  _552
REMARK  226  A    between atoms: _551  and  _554
REMARK  227  A    between atoms: _554  and  _555
REMARK  228  A    between atoms: _558  and  _560
REMARK  229  A    between atoms: _560  and  _561
REMARK  230  A    between atoms: _563  and  _565
REMARK  231  A    between atoms: _565  and  _566
REMARK  232  A    between atoms: _565  and  _568
REMARK  233  A    between atoms: _568  and  _569
REMARK  234  A    between atoms: _574  and  _576
REMARK  235  A    between atoms: _576  and  _577
REMARK  236  A    between atoms: _576  and  _579
REMARK  237  A    between atoms: _579  and  _580
REMARK  238  A    between atoms: _580  and  _581
REMARK  239  A    between atoms: _588  and  _589
REMARK  240  A    between atoms: _589  and  _605
REMARK  241  A    between atoms: _590  and  _592
REMARK  242  A    between atoms: _592  and  _593
REMARK  243  A    between atoms: _593  and  _594
REMARK  244  A    between atoms: _598  and  _600
REMARK  245  A    between atoms: _600  and  _601
REMARK  246  A    between atoms: _600  and  _608
REMARK  247  A    between atoms: _601  and  _602
REMARK  248  A    between atoms: _602  and  _603
REMARK  249  A    between atoms: _603  and  _604
REMARK  250  A    between atoms: _604  and  _605
REMARK  251  A    between atoms: _610  and  _612
REMARK  252  A    between atoms: _612  and  _613
REMARK  253  A    between atoms: _612  and  _615
REMARK  254  A    between atoms: _615  and  _616
REMARK  255  A    between atoms: _619  and  _621
REMARK  256  A    between atoms: _621  and  _622
REMARK  257  A    between atoms: _624  and  _626
REMARK  258  A    between atoms: _626  and  _627
REMARK  259  A    between atoms: _630  and  _632
REMARK  260  A    between atoms: _632  and  _633
REMARK  261  A    between atoms: _632  and  _635
REMARK  262  A    between atoms: _635  and  _636
REMARK  263  A    between atoms: _641  and  _642
REMARK                            x       y       z     vdW  Elec       q    Type
REMARK                         _______ _______ _______ _____ _____    ______ ____
ROOT
ATOM      1  O   HOH     1      34.878  26.495  38.619  0.00  0.00    +0.000 OA
ENDROOT
TORSDOF 0
REMARK  Name = ../refined-set-2016/2qrg/2qrg_pocket.pdb
REMARK  263 active torsions:
REMARK  status: ('A' for Active; 'I' for Inactive)
REMARK    1  A    between atoms: _1  and  _3
REMARK    2  A    between atoms: _3  and  _4
REMARK    3  A    between atoms: _3  and  _6
REMARK    4  A    between atoms: _6  and  _7
REMARK    5  A    between atoms: _12  and  _13
REMARK    6  A    between atoms: _15  and  _17
REMARK    7  A    between atoms: _17  and  _18
REMARK    8  A    between atoms: _17  and  _20
REMARK    9  A    between atoms: _20  and  _21
REMARK   10  A    between atoms: _24  and  _26
REMARK   11  A    between atoms: _26  and  _27
REMARK   12  A    between atoms: _26  and  _29
REMARK   13  A    between atoms: _29  and  _30
REMARK   14  A    between atoms: _30  and  _31
REMARK   15  A    between atoms: _34  and  _36
REMARK   16  A    between atoms: _36  and  _37
REMARK   17  A    between atoms: _36  and  _39
REMARK   18  A    between atoms: _39  and  _40
REMARK   19  A    between atoms: _45  and  _47
REMARK   20  A    between atoms: _47  and  _48
REMARK   21  A    between atoms: _50  and  _52
REMARK   22  A    between atoms: _52  and  _53
REMARK   23  A    between atoms: _55  and  _57
REMARK   24  A    between atoms: _57  and  _58
REMARK   25  A    between atoms: _57  and  _60
REMARK   26  A    between atoms: _60  and  _61
REMARK   27  A    between atoms: _64  and  _66
REMARK   28  A    between atoms: _66  and  _67
REMARK   29  A    between atoms: _69  and  _71
REMARK   30  A    between atoms: _71  and  _72
REMARK   31  A    between atoms: _71  and  _74
REMARK   32  A    between atoms: _74  and  _75
REMARK   33  A    between atoms: _75  and  _76
REMARK   34  A    between atoms: _76  and  _77
REMARK   35  A    between atoms: _86  and  _88
REMARK   36  A    between atoms: _88  and  _89
REMARK   37  A    between atoms: _88  and  _91
REMARK   38  A    between atoms: _91  and  _92
REMARK   39  A    between atoms: _95  and  _97
REMARK   40  A    between atoms: _97  and  _98
REMARK   41  A    between atoms: _101  and  _103
REMARK   42  A    between atoms: _103  and  _104
REMARK   43  A    between atoms: _103  and  _106
REMARK   44  A    between atoms: _106  and  _107
REMARK   45  A    between atoms: _113  and  _115
REMARK   46  A    between atoms: _115  and  _116
REMARK   47  A    between atoms: _115  and  _118
REMARK   48  A    between atoms: _118  and  _119
REMARK   49  A    between atoms: _122  and  _124
REMARK   50  A    between atoms: _124  and  _125
REMARK   51  A    between atoms: _124  and  _127
REMARK   52  A    between atoms: _127  and  _128
REMARK   53  A    between atoms: _133  and  _134
REMARK   54  A    between atoms: _137  and  _138
REMARK   55  A    between atoms: _143  and  _145
REMARK   56  A    between atoms: _145  and  _146
REMARK   57  A    between atoms: _145  and  _148
REMARK   58  A    between atoms: _148  and  _149
REMARK   59  A    between atoms: _154  and  _156
REMARK   60  A    between atoms: _156  and  _157
REMARK   61  A    between atoms: _156  and  _159
REMARK   62  A    between atoms: _159  and  _160
REMARK   63  A    between atoms: _163  and  _165
REMARK   64  A    between atoms: _165  and  _166
REMARK   65  A    between atoms: _165  and  _168
REMARK   66  A    between atoms: _168  and  _169
REMARK   67  A    between atoms: _174  and  _176
REMARK   68  A    between atoms: _176  and  _177
REMARK   69  A    between atoms: _176  and  _179
REMARK   70  A    between atoms: _179  and  _180
REMARK   71  A    between atoms: _186  and  _188
REMARK   72  A    between atoms: _188  and  _189
REMARK   73  A    between atoms: _188  and  _191
REMARK   74  A    between atoms: _191  and  _192
REMARK   75  A    between atoms: _198  and  _200
REMARK   76  A    between atoms: _200  and  _201
REMARK   77  A    between atoms: _200  and  _203
REMARK   78  A    between atoms: _203  and  _204
REMARK   79  A    between atoms: _204  and  _205
REMARK   80  A    between atoms: _208  and  _210
REMARK   81  A    between atoms: _210  and  _211
REMARK   82  A    between atoms: _210  and  _213
REMARK   83  A    between atoms: _213  and  _214
REMARK   84  A    between atoms: _214  and  _215
REMARK   85  A    between atoms: _215  and  _216
REMARK   86  A    between atoms: _225  and  _227
REMARK   87  A    between atoms: _227  and  _228
REMARK   88  A    between atoms: _227  and  _230
REMARK   89  A    between atoms: _230  and  _231
REMARK   90  A    between atoms: _231  and  _232
REMARK   91  A    between atoms: _235  and  _237
REMARK   92  A    between atoms: _237  and  _238
REMARK   93  A    between atoms: _237  and  _240
REMARK   94  A    between atoms: _240  and  _241
REMARK   95  A    between atoms: _246  and  _248
REMARK   96  A    between atoms: _248  and  _249
REMARK   97  A    between atoms: _248  and  _251
REMARK   98  A    between atoms: _251  and  _252
REMARK   99  A    between atoms: _255  and  _257
REMARK  100  A    between atoms: _257  and  _258
REMARK  101  A    between atoms: _257  and  _260
REMARK  102  A    between atoms: _260  and  _261
REMARK  103  A    between atoms: _264  and  _266
REMARK  104  A    between atoms: _266  and  _267
REMARK  105  A    between atoms: _266  and  _269
REMARK  106  A    between atoms: _269  and  _270
REMARK  107  A    between atoms: _275  and  _277
REMARK  108  A    between atoms: _277  and  _278
REMARK  109  A    between atoms: _277  and  _280
REMARK  110  A    between atoms: _280  and  _281
REMARK  111  A    between atoms: _284  and  _286
REMARK  112  A    between atoms: _286  and  _287
REMARK  113  A    between atoms: _286  and  _289
REMARK  114  A    between atoms: _289  and  _290
REMARK  115  A    between atoms: _295  and  _297
REMARK  116  A    between atoms: _297  and  _298
REMARK  117  A    between atoms: _297  and  _300
REMARK  118  A    between atoms: _300  and  _301
REMARK  119  A    between atoms: _306  and  _308
REMARK  120  A    between atoms: _308  and  _309
REMARK  121  A    between atoms: _308  and  _311
REMARK  122  A    between atoms: _311  and  _312
REMARK  123  A    between atoms: _315  and  _317
REMARK  124  A    between atoms: _317  and  _318
REMARK  125  A    between atoms: _317  and  _320
REMARK  126  A    between atoms: _323  and  _325
REMARK  127  A    between atoms: _325  and  _326
REMARK  128  A    between atoms: _325  and  _328
REMARK  129  A    between atoms: _328  and  _329
REMARK  130  A    between atoms: _332  and  _334
REMARK  131  A    between atoms: _334  and  _335
REMARK  132  A    between atoms: _334  and  _337
REMARK  133  A    between atoms: _337  and  _338
REMARK  134  A    between atoms: _338  and  _339
REMARK  135  A    between atoms: _342  and  _344
REMARK  136  A    between atoms: _344  and  _345
REMARK  137  A    between atoms: _348  and  _350
REMARK  138  A    between atoms: _350  and  _351
REMARK  139  A    between atoms: _350  and  _353
REMARK  140  A    between atoms: _353  and  _354
REMARK  141  A    between atoms: _357  and  _359
REMARK  142  A    between atoms: _359  and  _360
REMARK  143  A    between atoms: _359  and  _362
REMARK  144  A    between atoms: _362  and  _363
REMARK  145  A    between atoms: _363  and  _364
REMARK  146  A    between atoms: _367  and  _369
REMARK  147  A    between atoms: _369  and  _370
REMARK  148  A    between atoms: _369  and  _372
REMARK  149  A    between atoms: _372  and  _373
REMARK  150  A    between atoms: _378  and  _380
REMARK  151  A    between atoms: _380  and  _381
REMARK  152  A    between atoms: _383  and  _385
REMARK  153  A    between atoms: _385  and  _386
REMARK  154  A    between atoms: _385  and  _388
REMARK  155  A    between atoms: _391  and  _393
REMARK  156  A    between atoms: _393  and  _394
REMARK  157  A    between atoms: _397  and  _399
REMARK  158  A    between atoms: _399  and  _400
REMARK  159  A    between atoms: _399  and  _402
REMARK  160  A    between atoms: _402  and  _403
REMARK  161  A    between atoms: _408  and  _410
REMARK  162  A    between atoms: _410  and  _411
REMARK  163  A    between atoms: _410  and  _413
REMARK  164  A    between atoms: _413  and  _414
REMARK  165  A    between atoms: _414  and  _415
REMARK  166  A    between atoms: _415  and  _416
REMARK  167  A    between atoms: _416  and  _417
REMARK  168  A    between atoms: _421  and  _423
REMARK  169  A    between atoms: _423  and  _424
REMARK  170  A    between atoms: _423  and  _426
REMARK  171  A    between atoms: _426  and  _427
REMARK  172  A    between atoms: _430  and  _432
REMARK  173  A    between atoms: _432  and  _433
REMARK  174  A    between atoms: _432  and  _435
REMARK  175  A    between atoms: _435  and  _436
REMARK  176  A    between atoms: _441  and  _443
REMARK  177  A    between atoms: _443  and  _444
REMARK  178  A    between atoms: _446  and  _448
REMARK  179  A    between atoms: _448  and  _449
REMARK  180  A    between atoms: _448  and  _451
REMARK  181  A    between atoms: _451  and  _452
REMARK  182  A    between atoms: _452  and  _453
REMARK  183  A    between atoms: _453  and  _454
REMARK  184  A    between atoms: _454  and  _455
REMARK  185  A    between atoms: _459  and  _461
REMARK  186  A    between atoms: _461  and  _462
REMARK  187  A    between atoms: _461  and  _464
REMARK  188  A    between atoms: _464  and  _465
REMARK  189  A    between atoms: _465  and  _466
REMARK  190  A    between atoms: _466  and  _467
REMARK  191  A    between atoms: _476  and  _478
REMARK  192  A    between atoms: _478  and  _479
REMARK  193  A    between atoms: _478  and  _481
REMARK  194  A    between atoms: _481  and  _482
REMARK  195  A    between atoms: _487  and  _488
REMARK  196  A    between atoms: _490  and  _492
REMARK  197  A    between atoms: _492  and  _493
REMARK  198  A    between atoms: _492  and  _495
REMARK  199  A    between atoms: _495  and  _496
REMARK  200  A    between atoms: _496  and  _497
REMARK  201  A    between atoms: _497  and  _498
REMARK  202  A    between atoms: _498  and  _499
REMARK  203  A    between atoms: _503  and  _505
REMARK  204  A    between atoms: _505  and  _506
REMARK  205  A    between atoms: _505  and  _508
REMARK  206  A    between atoms: _508  and  _509
REMARK  207  A    between atoms: _511  and  _513
REMARK  208  A    between atoms: _513  and  _514
REMARK  209  A    between atoms: _513  and  _516
REMARK  210  A    between atoms: _516  and  _517
REMARK  211  A    between atoms: _520  and  _522
REMARK  212  A    between atoms: _522  and  _523
REMARK  213  A    between atoms: _522  and  _525
REMARK  214  A    between atoms: _525  and  _526
REMARK  215  A    between atoms: _526  and  _527
REMARK  216  A    between atoms: _530  and  _532
REMARK  217  A    between atoms: _532  and  _533
REMARK  218  A    between atoms: _536  and  _538
REMARK  219  A    between atoms: _538  and  _539
REMARK  220  A    between atoms: _538  and  _541
REMARK  221  A    between atoms: _541  and  _542
REMARK  222  A    between atoms: _544  and  _546
REMARK  223  A    between atoms: _546  and  _547
REMARK  224  A    between atoms: _549  and  _551
REMARK  225  A    between atoms: _551  and  _552
REMARK  226  A    between atoms: _551  and  _554
REMARK  227  A    between atoms: _554  and  _555
REMARK  228  A    between atoms: _558  and  _560
REMARK  229  A    between atoms: _560  and  _561
REMARK  230  A    between atoms: _563  and  _565
REMARK  231  A    between atoms: _565  and  _566
REMARK  232  A    between atoms: _565  and  _568
REMARK  233  A    between atoms: _568  and  _569
REMARK  234  A    between atoms: _574  and  _576
REMARK  235  A    between atoms: _576  and  _577
REMARK  236  A    between atoms: _576  and  _579
REMARK  237  A    between atoms: _579  and  _580
REMARK  238  A    between atoms: _580  and  _581
REMARK  239  A    between atoms: _588  and  _589
REMARK  240  A    between atoms: _589  and  _605
REMARK  241  A    between atoms: _590  and  _592
REMARK  242  A    between atoms: _592  and  _593
REMARK  243  A    between atoms: _593  and  _594
REMARK  244  A    between atoms: _598  and  _600
REMARK  245  A    between atoms: _600  and  _601
REMARK  246  A    between atoms: _600  and  _608
REMARK  247  A    between atoms: _601  and  _602
REMARK  248  A    between atoms: _602  and  _603
REMARK  249  A    between atoms: _603  and  _604
REMARK  250  A    between atoms: _604  and  _605
REMARK  251  A    between atoms: _610  and  _612
REMARK  252  A    between atoms: _612  and  _613
REMARK  253  A    between atoms: _612  and  _615
REMARK  254  A    between atoms: _615  and  _616
REMARK  255  A    between atoms: _619  and  _621
REMARK  256  A    between atoms: _621  and  _622
REMARK  257  A    between atoms: _624  and  _626
REMARK  258  A    between atoms: _626  and  _627
REMARK  259  A    between atoms: _630  and  _632
REMARK  260  A    between atoms: _632  and  _633
REMARK  261  A    between atoms: _632  and  _635
REMARK  262  A    between atoms: _635  and  _636
REMARK  263  A    between atoms: _641  and  _642
REMARK                            x       y       z     vdW  Elec       q    Type
REMARK                         _______ _______ _______ _____ _____    ______ ____
ROOT
ATOM      1  O   HOH     1      40.665  28.763  38.059  0.00  0.00    +0.000 OA
ENDROOT
TORSDOF 0
REMARK  Name = ../refined-set-2016/2qrg/2qrg_pocket.pdb
REMARK  263 active torsions:
REMARK  status: ('A' for Active; 'I' for Inactive)
REMARK    1  A    between atoms: _1  and  _3
REMARK    2  A    between atoms: _3  and  _4
REMARK    3  A    between atoms: _3  and  _6
REMARK    4  A    between atoms: _6  and  _7
REMARK    5  A    between atoms: _12  and  _13
REMARK    6  A    between atoms: _15  and  _17
REMARK    7  A    between atoms: _17  and  _18
REMARK    8  A    between atoms: _17  and  _20
REMARK    9  A    between atoms: _20  and  _21
REMARK   10  A    between atoms: _24  and  _26
REMARK   11  A    between atoms: _26  and  _27
REMARK   12  A    between atoms: _26  and  _29
REMARK   13  A    between atoms: _29  and  _30
REMARK   14  A    between atoms: _30  and  _31
REMARK   15  A    between atoms: _34  and  _36
REMARK   16  A    between atoms: _36  and  _37
REMARK   17  A    between atoms: _36  and  _39
REMARK   18  A    between atoms: _39  and  _40
REMARK   19  A    between atoms: _45  and  _47
REMARK   20  A    between atoms: _47  and  _48
REMARK   21  A    between atoms: _50  and  _52
REMARK   22  A    between atoms: _52  and  _53
REMARK   23  A    between atoms: _55  and  _57
REMARK   24  A    between atoms: _57  and  _58
REMARK   25  A    between atoms: _57  and  _60
REMARK   26  A    between atoms: _60  and  _61
REMARK   27  A    between atoms: _64  and  _66
REMARK   28  A    between atoms: _66  and  _67
REMARK   29  A    between atoms: _69  and  _71
REMARK   30  A    between atoms: _71  and  _72
REMARK   31  A    between atoms: _71  and  _74
REMARK   32  A    between atoms: _74  and  _75
REMARK   33  A    between atoms: _75  and  _76
REMARK   34  A    between atoms: _76  and  _77
REMARK   35  A    between atoms: _86  and  _88
REMARK   36  A    between atoms: _88  and  _89
REMARK   37  A    between atoms: _88  and  _91
REMARK   38  A    between atoms: _91  and  _92
REMARK   39  A    between atoms: _95  and  _97
REMARK   40  A    between atoms: _97  and  _98
REMARK   41  A    between atoms: _101  and  _103
REMARK   42  A    between atoms: _103  and  _104
REMARK   43  A    between atoms: _103  and  _106
REMARK   44  A    between atoms: _106  and  _107
REMARK   45  A    between atoms: _113  and  _115
REMARK   46  A    between atoms: _115  and  _116
REMARK   47  A    between atoms: _115  and  _118
REMARK   48  A    between atoms: _118  and  _119
REMARK   49  A    between atoms: _122  and  _124
REMARK   50  A    between atoms: _124  and  _125
REMARK   51  A    between atoms: _124  and  _127
REMARK   52  A    between atoms: _127  and  _128
REMARK   53  A    between atoms: _133  and  _134
REMARK   54  A    between atoms: _137  and  _138
REMARK   55  A    between atoms: _143  and  _145
REMARK   56  A    between atoms: _145  and  _146
REMARK   57  A    between atoms: _145  and  _148
REMARK   58  A    between atoms: _148  and  _149
REMARK   59  A    between atoms: _154  and  _156
REMARK   60  A    between atoms: _156  and  _157
REMARK   61  A    between atoms: _156  and  _159
REMARK   62  A    between atoms: _159  and  _160
REMARK   63  A    between atoms: _163  and  _165
REMARK   64  A    between atoms: _165  and  _166
REMARK   65  A    between atoms: _165  and  _168
REMARK   66  A    between atoms: _168  and  _169
REMARK   67  A    between atoms: _174  and  _176
REMARK   68  A    between atoms: _176  and  _177
REMARK   69  A    between atoms: _176  and  _179
REMARK   70  A    between atoms: _179  and  _180
REMARK   71  A    between atoms: _186  and  _188
REMARK   72  A    between atoms: _188  and  _189
REMARK   73  A    between atoms: _188  and  _191
REMARK   74  A    between atoms: _191  and  _192
REMARK   75  A    between atoms: _198  and  _200
REMARK   76  A    between atoms: _200  and  _201
REMARK   77  A    between atoms: _200  and  _203
REMARK   78  A    between atoms: _203  and  _204
REMARK   79  A    between atoms: _204  and  _205
REMARK   80  A    between atoms: _208  and  _210
REMARK   81  A    between atoms: _210  and  _211
REMARK   82  A    between atoms: _210  and  _213
REMARK   83  A    between atoms: _213  and  _214
REMARK   84  A    between atoms: _214  and  _215
REMARK   85  A    between atoms: _215  and  _216
REMARK   86  A    between atoms: _225  and  _227
REMARK   87  A    between atoms: _227  and  _228
REMARK   88  A    between atoms: _227  and  _230
REMARK   89  A    between atoms: _230  and  _231
REMARK   90  A    between atoms: _231  and  _232
REMARK   91  A    between atoms: _235  and  _237
REMARK   92  A    between atoms: _237  and  _238
REMARK   93  A    between atoms: _237  and  _240
REMARK   94  A    between atoms: _240  and  _241
REMARK   95  A    between atoms: _246  and  _248
REMARK   96  A    between atoms: _248  and  _249
REMARK   97  A    between atoms: _248  and  _251
REMARK   98  A    between atoms: _251  and  _252
REMARK   99  A    between atoms: _255  and  _257
REMARK  100  A    between atoms: _257  and  _258
REMARK  101  A    between atoms: _257  and  _260
REMARK  102  A    between atoms: _260  and  _261
REMARK  103  A    between atoms: _264  and  _266
REMARK  104  A    between atoms: _266  and  _267
REMARK  105  A    between atoms: _266  and  _269
REMARK  106  A    between atoms: _269  and  _270
REMARK  107  A    between atoms: _275  and  _277
REMARK  108  A    between atoms: _277  and  _278
REMARK  109  A    between atoms: _277  and  _280
REMARK  110  A    between atoms: _280  and  _281
REMARK  111  A    between atoms: _284  and  _286
REMARK  112  A    between atoms: _286  and  _287
REMARK  113  A    between atoms: _286  and  _289
REMARK  114  A    between atoms: _289  and  _290
REMARK  115  A    between atoms: _295  and  _297
REMARK  116  A    between atoms: _297  and  _298
REMARK  117  A    between atoms: _297  and  _300
REMARK  118  A    between atoms: _300  and  _301
REMARK  119  A    between atoms: _306  and  _308
REMARK  120  A    between atoms: _308  and  _309
REMARK  121  A    between atoms: _308  and  _311
REMARK  122  A    between atoms: _311  and  _312
REMARK  123  A    between atoms: _315  and  _317
REMARK  124  A    between atoms: _317  and  _318
REMARK  125  A    between atoms: _317  and  _320
REMARK  126  A    between atoms: _323  and  _325
REMARK  127  A    between atoms: _325  and  _326
REMARK  128  A    between atoms: _325  and  _328
REMARK  129  A    between atoms: _328  and  _329
REMARK  130  A    between atoms: _332  and  _334
REMARK  131  A    between atoms: _334  and  _335
REMARK  132  A    between atoms: _334  and  _337
REMARK  133  A    between atoms: _337  and  _338
REMARK  134  A    between atoms: _338  and  _339
REMARK  135  A    between atoms: _342  and  _344
REMARK  136  A    between atoms: _344  and  _345
REMARK  137  A    between atoms: _348  and  _350
REMARK  138  A    between atoms: _350  and  _351
REMARK  139  A    between atoms: _350  and  _353
REMARK  140  A    between atoms: _353  and  _354
REMARK  141  A    between atoms: _357  and  _359
REMARK  142  A    between atoms: _359  and  _360
REMARK  143  A    between atoms: _359  and  _362
REMARK  144  A    between atoms: _362  and  _363
REMARK  145  A    between atoms: _363  and  _364
REMARK  146  A    between atoms: _367  and  _369
REMARK  147  A    between atoms: _369  and  _370
REMARK  148  A    between atoms: _369  and  _372
REMARK  149  A    between atoms: _372  and  _373
REMARK  150  A    between atoms: _378  and  _380
REMARK  151  A    between atoms: _380  and  _381
REMARK  152  A    between atoms: _383  and  _385
REMARK  153  A    between atoms: _385  and  _386
REMARK  154  A    between atoms: _385  and  _388
REMARK  155  A    between atoms: _391  and  _393
REMARK  156  A    between atoms: _393  and  _394
REMARK  157  A    between atoms: _397  and  _399
REMARK  158  A    between atoms: _399  and  _400
REMARK  159  A    between atoms: _399  and  _402
REMARK  160  A    between atoms: _402  and  _403
REMARK  161  A    between atoms: _408  and  _410
REMARK  162  A    between atoms: _410  and  _411
REMARK  163  A    between atoms: _410  and  _413
REMARK  164  A    between atoms: _413  and  _414
REMARK  165  A    between atoms: _414  and  _415
REMARK  166  A    between atoms: _415  and  _416
REMARK  167  A    between atoms: _416  and  _417
REMARK  168  A    between atoms: _421  and  _423
REMARK  169  A    between atoms: _423  and  _424
REMARK  170  A    between atoms: _423  and  _426
REMARK  171  A    between atoms: _426  and  _427
REMARK  172  A    between atoms: _430  and  _432
REMARK  173  A    between atoms: _432  and  _433
REMARK  174  A    between atoms: _432  and  _435
REMARK  175  A    between atoms: _435  and  _436
REMARK  176  A    between atoms: _441  and  _443
REMARK  177  A    between atoms: _443  and  _444
REMARK  178  A    between atoms: _446  and  _448
REMARK  179  A    between atoms: _448  and  _449
REMARK  180  A    between atoms: _448  and  _451
REMARK  181  A    between atoms: _451  and  _452
REMARK  182  A    between atoms: _452  and  _453
REMARK  183  A    between atoms: _453  and  _454
REMARK  184  A    between atoms: _454  and  _455
REMARK  185  A    between atoms: _459  and  _461
REMARK  186  A    between atoms: _461  and  _462
REMARK  187  A    between atoms: _461  and  _464
REMARK  188  A    between atoms: _464  and  _465
REMARK  189  A    between atoms: _465  and  _466
REMARK  190  A    between atoms: _466  and  _467
REMARK  191  A    between atoms: _476  and  _478
REMARK  192  A    between atoms: _478  and  _479
REMARK  193  A    between atoms: _478  and  _481
REMARK  194  A    between atoms: _481  and  _482
REMARK  195  A    between atoms: _487  and  _488
REMARK  196  A    between atoms: _490  and  _492
REMARK  197  A    between atoms: _492  and  _493
REMARK  198  A    between atoms: _492  and  _495
REMARK  199  A    between atoms: _495  and  _496
REMARK  200  A    between atoms: _496  and  _497
REMARK  201  A    between atoms: _497  and  _498
REMARK  202  A    between atoms: _498  and  _499
REMARK  203  A    between atoms: _503  and  _505
REMARK  204  A    between atoms: _505  and  _506
REMARK  205  A    between atoms: _505  and  _508
REMARK  206  A    between atoms: _508  and  _509
REMARK  207  A    between atoms: _511  and  _513
REMARK  208  A    between atoms: _513  and  _514
REMARK  209  A    between atoms: _513  and  _516
REMARK  210  A    between atoms: _516  and  _517
REMARK  211  A    between atoms: _520  and  _522
REMARK  212  A    between atoms: _522  and  _523
REMARK  213  A    between atoms: _522  and  _525
REMARK  214  A    between atoms: _525  and  _526
REMARK  215  A    between atoms: _526  and  _527
REMARK  216  A    between atoms: _530  and  _532
REMARK  217  A    between atoms: _532  and  _533
REMARK  218  A    between atoms: _536  and  _538
REMARK  219  A    between atoms: _538  and  _539
REMARK  220  A    between atoms: _538  and  _541
REMARK  221  A    between atoms: _541  and  _542
REMARK  222  A    between atoms: _544  and  _546
REMARK  223  A    between atoms: _546  and  _547
REMARK  224  A    between atoms: _549  and  _551
REMARK  225  A    between atoms: _551  and  _552
REMARK  226  A    between atoms: _551  and  _554
REMARK  227  A    between atoms: _554  and  _555
REMARK  228  A    between atoms: _558  and  _560
REMARK  229  A    between atoms: _560  and  _561
REMARK  230  A    between atoms: _563  and  _565
REMARK  231  A    between atoms: _565  and  _566
REMARK  232  A    between atoms: _565  and  _568
REMARK  233  A    between atoms: _568  and  _569
REMARK  234  A    between atoms: _574  and  _576
REMARK  235  A    between atoms: _576  and  _577
REMARK  236  A    between atoms: _576  and  _579
REMARK  237  A    between atoms: _579  and  _580
REMARK  238  A    between atoms: _580  and  _581
REMARK  239  A    between atoms: _588  and  _589
REMARK  240  A    between atoms: _589  and  _605
REMARK  241  A    between atoms: _590  and  _592
REMARK  242  A    between atoms: _592  and  _593
REMARK  243  A    between atoms: _593  and  _594
REMARK  244  A    between atoms: _598  and  _600
REMARK  245  A    between atoms: _600  and  _601
REMARK  246  A    between atoms: _600  and  _608
REMARK  247  A    between atoms: _601  and  _602
REMARK  248  A    between atoms: _602  and  _603
REMARK  249  A    between atoms: _603  and  _604
REMARK  250  A    between atoms: _604  and  _605
REMARK  251  A    between atoms: _610  and  _612
REMARK  252  A    between atoms: _612  and  _613
REMARK  253  A    between atoms: _612  and  _615
REMARK  254  A    between atoms: _615  and  _616
REMARK  255  A    between atoms: _619  and  _621
REMARK  256  A    between atoms: _621  and  _622
REMARK  257  A    between atoms: _624  and  _626
REMARK  258  A    between atoms: _626  and  _627
REMARK  259  A    between atoms: _630  and  _632
REMARK  260  A    between atoms: _632  and  _633
REMARK  261  A    between atoms: _632  and  _635
REMARK  262  A    between atoms: _635  and  _636
REMARK  263  A    between atoms: _641  and  _642
REMARK                            x       y       z     vdW  Elec       q    Type
REMARK                         _______ _______ _______ _____ _____    ______ ____
ROOT
ATOM      1  O   HOH     1      31.959  26.470  27.307  0.00  0.00    +0.000 OA
ENDROOT
TORSDOF 0
REMARK  Name = ../refined-set-2016/2qrg/2qrg_pocket.pdb
REMARK  263 active torsions:
REMARK  status: ('A' for Active; 'I' for Inactive)
REMARK    1  A    between atoms: _1  and  _3
REMARK    2  A    between atoms: _3  and  _4
REMARK    3  A    between atoms: _3  and  _6
REMARK    4  A    between atoms: _6  and  _7
REMARK    5  A    between atoms: _12  and  _13
REMARK    6  A    between atoms: _15  and  _17
REMARK    7  A    between atoms: _17  and  _18
REMARK    8  A    between atoms: _17  and  _20
REMARK    9  A    between atoms: _20  and  _21
REMARK   10  A    between atoms: _24  and  _26
REMARK   11  A    between atoms: _26  and  _27
REMARK   12  A    between atoms: _26  and  _29
REMARK   13  A    between atoms: _29  and  _30
REMARK   14  A    between atoms: _30  and  _31
REMARK   15  A    between atoms: _34  and  _36
REMARK   16  A    between atoms: _36  and  _37
REMARK   17  A    between atoms: _36  and  _39
REMARK   18  A    between atoms: _39  and  _40
REMARK   19  A    between atoms: _45  and  _47
REMARK   20  A    between atoms: _47  and  _48
REMARK   21  A    between atoms: _50  and  _52
REMARK   22  A    between atoms: _52  and  _53
REMARK   23  A    between atoms: _55  and  _57
REMARK   24  A    between atoms: _57  and  _58
REMARK   25  A    between atoms: _57  and  _60
REMARK   26  A    between atoms: _60  and  _61
REMARK   27  A    between atoms: _64  and  _66
REMARK   28  A    between atoms: _66  and  _67
REMARK   29  A    between atoms: _69  and  _71
REMARK   30  A    between atoms: _71  and  _72
REMARK   31  A    between atoms: _71  and  _74
REMARK   32  A    between atoms: _74  and  _75
REMARK   33  A    between atoms: _75  and  _76
REMARK   34  A    between atoms: _76  and  _77
REMARK   35  A    between atoms: _86  and  _88
REMARK   36  A    between atoms: _88  and  _89
REMARK   37  A    between atoms: _88  and  _91
REMARK   38  A    between atoms: _91  and  _92
REMARK   39  A    between atoms: _95  and  _97
REMARK   40  A    between atoms: _97  and  _98
REMARK   41  A    between atoms: _101  and  _103
REMARK   42  A    between atoms: _103  and  _104
REMARK   43  A    between atoms: _103  and  _106
REMARK   44  A    between atoms: _106  and  _107
REMARK   45  A    between atoms: _113  and  _115
REMARK   46  A    between atoms: _115  and  _116
REMARK   47  A    between atoms: _115  and  _118
REMARK   48  A    between atoms: _118  and  _119
REMARK   49  A    between atoms: _122  and  _124
REMARK   50  A    between atoms: _124  and  _125
REMARK   51  A    between atoms: _124  and  _127
REMARK   52  A    between atoms: _127  and  _128
REMARK   53  A    between atoms: _133  and  _134
REMARK   54  A    between atoms: _137  and  _138
REMARK   55  A    between atoms: _143  and  _145
REMARK   56  A    between atoms: _145  and  _146
REMARK   57  A    between atoms: _145  and  _148
REMARK   58  A    between atoms: _148  and  _149
REMARK   59  A    between atoms: _154  and  _156
REMARK   60  A    between atoms: _156  and  _157
REMARK   61  A    between atoms: _156  and  _159
REMARK   62  A    between atoms: _159  and  _160
REMARK   63  A    between atoms: _163  and  _165
REMARK   64  A    between atoms: _165  and  _166
REMARK   65  A    between atoms: _165  and  _168
REMARK   66  A    between atoms: _168  and  _169
REMARK   67  A    between atoms: _174  and  _176
REMARK   68  A    between atoms: _176  and  _177
REMARK   69  A    between atoms: _176  and  _179
REMARK   70  A    between atoms: _179  and  _180
REMARK   71  A    between atoms: _186  and  _188
REMARK   72  A    between atoms: _188  and  _189
REMARK   73  A    between atoms: _188  and  _191
REMARK   74  A    between atoms: _191  and  _192
REMARK   75  A    between atoms: _198  and  _200
REMARK   76  A    between atoms: _200  and  _201
REMARK   77  A    between atoms: _200  and  _203
REMARK   78  A    between atoms: _203  and  _204
REMARK   79  A    between atoms: _204  and  _205
REMARK   80  A    between atoms: _208  and  _210
REMARK   81  A    between atoms: _210  and  _211
REMARK   82  A    between atoms: _210  and  _213
REMARK   83  A    between atoms: _213  and  _214
REMARK   84  A    between atoms: _214  and  _215
REMARK   85  A    between atoms: _215  and  _216
REMARK   86  A    between atoms: _225  and  _227
REMARK   87  A    between atoms: _227  and  _228
REMARK   88  A    between atoms: _227  and  _230
REMARK   89  A    between atoms: _230  and  _231
REMARK   90  A    between atoms: _231  and  _232
REMARK   91  A    between atoms: _235  and  _237
REMARK   92  A    between atoms: _237  and  _238
REMARK   93  A    between atoms: _237  and  _240
REMARK   94  A    between atoms: _240  and  _241
REMARK   95  A    between atoms: _246  and  _248
REMARK   96  A    between atoms: _248  and  _249
REMARK   97  A    between atoms: _248  and  _251
REMARK   98  A    between atoms: _251  and  _252
REMARK   99  A    between atoms: _255  and  _257
REMARK  100  A    between atoms: _257  and  _258
REMARK  101  A    between atoms: _257  and  _260
REMARK  102  A    between atoms: _260  and  _261
REMARK  103  A    between atoms: _264  and  _266
REMARK  104  A    between atoms: _266  and  _267
REMARK  105  A    between atoms: _266  and  _269
REMARK  106  A    between atoms: _269  and  _270
REMARK  107  A    between atoms: _275  and  _277
REMARK  108  A    between atoms: _277  and  _278
REMARK  109  A    between atoms: _277  and  _280
REMARK  110  A    between atoms: _280  and  _281
REMARK  111  A    between atoms: _284  and  _286
REMARK  112  A    between atoms: _286  and  _287
REMARK  113  A    between atoms: _286  and  _289
REMARK  114  A    between atoms: _289  and  _290
REMARK  115  A    between atoms: _295  and  _297
REMARK  116  A    between atoms: _297  and  _298
REMARK  117  A    between atoms: _297  and  _300
REMARK  118  A    between atoms: _300  and  _301
REMARK  119  A    between atoms: _306  and  _308
REMARK  120  A    between atoms: _308  and  _309
REMARK  121  A    between atoms: _308  and  _311
REMARK  122  A    between atoms: _311  and  _312
REMARK  123  A    between atoms: _315  and  _317
REMARK  124  A    between atoms: _317  and  _318
REMARK  125  A    between atoms: _317  and  _320
REMARK  126  A    between atoms: _323  and  _325
REMARK  127  A    between atoms: _325  and  _326
REMARK  128  A    between atoms: _325  and  _328
REMARK  129  A    between atoms: _328  and  _329
REMARK  130  A    between atoms: _332  and  _334
REMARK  131  A    between atoms: _334  and  _335
REMARK  132  A    between atoms: _334  and  _337
REMARK  133  A    between atoms: _337  and  _338
REMARK  134  A    between atoms: _338  and  _339
REMARK  135  A    between atoms: _342  and  _344
REMARK  136  A    between atoms: _344  and  _345
REMARK  137  A    between atoms: _348  and  _350
REMARK  138  A    between atoms: _350  and  _351
REMARK  139  A    between atoms: _350  and  _353
REMARK  140  A    between atoms: _353  and  _354
REMARK  141  A    between atoms: _357  and  _359
REMARK  142  A    between atoms: _359  and  _360
REMARK  143  A    between atoms: _359  and  _362
REMARK  144  A    between atoms: _362  and  _363
REMARK  145  A    between atoms: _363  and  _364
REMARK  146  A    between atoms: _367  and  _369
REMARK  147  A    between atoms: _369  and  _370
REMARK  148  A    between atoms: _369  and  _372
REMARK  149  A    between atoms: _372  and  _373
REMARK  150  A    between atoms: _378  and  _380
REMARK  151  A    between atoms: _380  and  _381
REMARK  152  A    between atoms: _383  and  _385
REMARK  153  A    between atoms: _385  and  _386
REMARK  154  A    between atoms: _385  and  _388
REMARK  155  A    between atoms: _391  and  _393
REMARK  156  A    between atoms: _393  and  _394
REMARK  157  A    between atoms: _397  and  _399
REMARK  158  A    between atoms: _399  and  _400
REMARK  159  A    between atoms: _399  and  _402
REMARK  160  A    between atoms: _402  and  _403
REMARK  161  A    between atoms: _408  and  _410
REMARK  162  A    between atoms: _410  and  _411
REMARK  163  A    between atoms: _410  and  _413
REMARK  164  A    between atoms: _413  and  _414
REMARK  165  A    between atoms: _414  and  _415
REMARK  166  A    between atoms: _415  and  _416
REMARK  167  A    between atoms: _416  and  _417
REMARK  168  A    between atoms: _421  and  _423
REMARK  169  A    between atoms: _423  and  _424
REMARK  170  A    between atoms: _423  and  _426
REMARK  171  A    between atoms: _426  and  _427
REMARK  172  A    between atoms: _430  and  _432
REMARK  173  A    between atoms: _432  and  _433
REMARK  174  A    between atoms: _432  and  _435
REMARK  175  A    between atoms: _435  and  _436
REMARK  176  A    between atoms: _441  and  _443
REMARK  177  A    between atoms: _443  and  _444
REMARK  178  A    between atoms: _446  and  _448
REMARK  179  A    between atoms: _448  and  _449
REMARK  180  A    between atoms: _448  and  _451
REMARK  181  A    between atoms: _451  and  _452
REMARK  182  A    between atoms: _452  and  _453
REMARK  183  A    between atoms: _453  and  _454
REMARK  184  A    between atoms: _454  and  _455
REMARK  185  A    between atoms: _459  and  _461
REMARK  186  A    between atoms: _461  and  _462
REMARK  187  A    between atoms: _461  and  _464
REMARK  188  A    between atoms: _464  and  _465
REMARK  189  A    between atoms: _465  and  _466
REMARK  190  A    between atoms: _466  and  _467
REMARK  191  A    between atoms: _476  and  _478
REMARK  192  A    between atoms: _478  and  _479
REMARK  193  A    between atoms: _478  and  _481
REMARK  194  A    between atoms: _481  and  _482
REMARK  195  A    between atoms: _487  and  _488
REMARK  196  A    between atoms: _490  and  _492
REMARK  197  A    between atoms: _492  and  _493
REMARK  198  A    between atoms: _492  and  _495
REMARK  199  A    between atoms: _495  and  _496
REMARK  200  A    between atoms: _496  and  _497
REMARK  201  A    between atoms: _497  and  _498
REMARK  202  A    between atoms: _498  and  _499
REMARK  203  A    between atoms: _503  and  _505
REMARK  204  A    between atoms: _505  and  _506
REMARK  205  A    between atoms: _505  and  _508
REMARK  206  A    between atoms: _508  and  _509
REMARK  207  A    between atoms: _511  and  _513
REMARK  208  A    between atoms: _513  and  _514
REMARK  209  A    between atoms: _513  and  _516
REMARK  210  A    between atoms: _516  and  _517
REMARK  211  A    between atoms: _520  and  _522
REMARK  212  A    between atoms: _522  and  _523
REMARK  213  A    between atoms: _522  and  _525
REMARK  214  A    between atoms: _525  and  _526
REMARK  215  A    between atoms: _526  and  _527
REMARK  216  A    between atoms: _530  and  _532
REMARK  217  A    between atoms: _532  and  _533
REMARK  218  A    between atoms: _536  and  _538
REMARK  219  A    between atoms: _538  and  _539
REMARK  220  A    between atoms: _538  and  _541
REMARK  221  A    between atoms: _541  and  _542
REMARK  222  A    between atoms: _544  and  _546
REMARK  223  A    between atoms: _546  and  _547
REMARK  224  A    between atoms: _549  and  _551
REMARK  225  A    between atoms: _551  and  _552
REMARK  226  A    between atoms: _551  and  _554
REMARK  227  A    between atoms: _554  and  _555
REMARK  228  A    between atoms: _558  and  _560
REMARK  229  A    between atoms: _560  and  _561
REMARK  230  A    between atoms: _563  and  _565
REMARK  231  A    between atoms: _565  and  _566
REMARK  232  A    between atoms: _565  and  _568
REMARK  233  A    between atoms: _568  and  _569
REMARK  234  A    between atoms: _574  and  _576
REMARK  235  A    between atoms: _576  and  _577
REMARK  236  A    between atoms: _576  and  _579
REMARK  237  A    between atoms: _579  and  _580
REMARK  238  A    between atoms: _580  and  _581
REMARK  239  A    between atoms: _588  and  _589
REMARK  240  A    between atoms: _589  and  _605
REMARK  241  A    between atoms: _590  and  _592
REMARK  242  A    between atoms: _592  and  _593
REMARK  243  A    between atoms: _593  and  _594
REMARK  244  A    between atoms: _598  and  _600
REMARK  245  A    between atoms: _600  and  _601
REMARK  246  A    between atoms: _600  and  _608
REMARK  247  A    between atoms: _601  and  _602
REMARK  248  A    between atoms: _602  and  _603
REMARK  249  A    between atoms: _603  and  _604
REMARK  250  A    between atoms: _604  and  _605
REMARK  251  A    between atoms: _610  and  _612
REMARK  252  A    between atoms: _612  and  _613
REMARK  253  A    between atoms: _612  and  _615
REMARK  254  A    between atoms: _615  and  _616
REMARK  255  A    between atoms: _619  and  _621
REMARK  256  A    between atoms: _621  and  _622
REMARK  257  A    between atoms: _624  and  _626
REMARK  258  A    between atoms: _626  and  _627
REMARK  259  A    between atoms: _630  and  _632
REMARK  260  A    between atoms: _632  and  _633
REMARK  261  A    between atoms: _632  and  _635
REMARK  262  A    between atoms: _635  and  _636
REMARK  263  A    between atoms: _641  and  _642
REMARK                            x       y       z     vdW  Elec       q    Type
REMARK                         _______ _______ _______ _____ _____    ______ ____
ROOT
ATOM      1  O   HOH     1      41.033  24.005  32.498  0.00  0.00    +0.000 OA
ENDROOT
TORSDOF 0
REMARK  Name = ../refined-set-2016/2qrg/2qrg_pocket.pdb
REMARK  263 active torsions:
REMARK  status: ('A' for Active; 'I' for Inactive)
REMARK    1  A    between atoms: _1  and  _3
REMARK    2  A    between atoms: _3  and  _4
REMARK    3  A    between atoms: _3  and  _6
REMARK    4  A    between atoms: _6  and  _7
REMARK    5  A    between atoms: _12  and  _13
REMARK    6  A    between atoms: _15  and  _17
REMARK    7  A    between atoms: _17  and  _18
REMARK    8  A    between atoms: _17  and  _20
REMARK    9  A    between atoms: _20  and  _21
REMARK   10  A    between atoms: _24  and  _26
REMARK   11  A    between atoms: _26  and  _27
REMARK   12  A    between atoms: _26  and  _29
REMARK   13  A    between atoms: _29  and  _30
REMARK   14  A    between atoms: _30  and  _31
REMARK   15  A    between atoms: _34  and  _36
REMARK   16  A    between atoms: _36  and  _37
REMARK   17  A    between atoms: _36  and  _39
REMARK   18  A    between atoms: _39  and  _40
REMARK   19  A    between atoms: _45  and  _47
REMARK   20  A    between atoms: _47  and  _48
REMARK   21  A    between atoms: _50  and  _52
REMARK   22  A    between atoms: _52  and  _53
REMARK   23  A    between atoms: _55  and  _57
REMARK   24  A    between atoms: _57  and  _58
REMARK   25  A    between atoms: _57  and  _60
REMARK   26  A    between atoms: _60  and  _61
REMARK   27  A    between atoms: _64  and  _66
REMARK   28  A    between atoms: _66  and  _67
REMARK   29  A    between atoms: _69  and  _71
REMARK   30  A    between atoms: _71  and  _72
REMARK   31  A    between atoms: _71  and  _74
REMARK   32  A    between atoms: _74  and  _75
REMARK   33  A    between atoms: _75  and  _76
REMARK   34  A    between atoms: _76  and  _77
REMARK   35  A    between atoms: _86  and  _88
REMARK   36  A    between atoms: _88  and  _89
REMARK   37  A    between atoms: _88  and  _91
REMARK   38  A    between atoms: _91  and  _92
REMARK   39  A    between atoms: _95  and  _97
REMARK   40  A    between atoms: _97  and  _98
REMARK   41  A    between atoms: _101  and  _103
REMARK   42  A    between atoms: _103  and  _104
REMARK   43  A    between atoms: _103  and  _106
REMARK   44  A    between atoms: _106  and  _107
REMARK   45  A    between atoms: _113  and  _115
REMARK   46  A    between atoms: _115  and  _116
REMARK   47  A    between atoms: _115  and  _118
REMARK   48  A    between atoms: _118  and  _119
REMARK   49  A    between atoms: _122  and  _124
REMARK   50  A    between atoms: _124  and  _125
REMARK   51  A    between atoms: _124  and  _127
REMARK   52  A    between atoms: _127  and  _128
REMARK   53  A    between atoms: _133  and  _134
REMARK   54  A    between atoms: _137  and  _138
REMARK   55  A    between atoms: _143  and  _145
REMARK   56  A    between atoms: _145  and  _146
REMARK   57  A    between atoms: _145  and  _148
REMARK   58  A    between atoms: _148  and  _149
REMARK   59  A    between atoms: _154  and  _156
REMARK   60  A    between atoms: _156  and  _157
REMARK   61  A    between atoms: _156  and  _159
REMARK   62  A    between atoms: _159  and  _160
REMARK   63  A    between atoms: _163  and  _165
REMARK   64  A    between atoms: _165  and  _166
REMARK   65  A    between atoms: _165  and  _168
REMARK   66  A    between atoms: _168  and  _169
REMARK   67  A    between atoms: _174  and  _176
REMARK   68  A    between atoms: _176  and  _177
REMARK   69  A    between atoms: _176  and  _179
REMARK   70  A    between atoms: _179  and  _180
REMARK   71  A    between atoms: _186  and  _188
REMARK   72  A    between atoms: _188  and  _189
REMARK   73  A    between atoms: _188  and  _191
REMARK   74  A    between atoms: _191  and  _192
REMARK   75  A    between atoms: _198  and  _200
REMARK   76  A    between atoms: _200  and  _201
REMARK   77  A    between atoms: _200  and  _203
REMARK   78  A    between atoms: _203  and  _204
REMARK   79  A    between atoms: _204  and  _205
REMARK   80  A    between atoms: _208  and  _210
REMARK   81  A    between atoms: _210  and  _211
REMARK   82  A    between atoms: _210  and  _213
REMARK   83  A    between atoms: _213  and  _214
REMARK   84  A    between atoms: _214  and  _215
REMARK   85  A    between atoms: _215  and  _216
REMARK   86  A    between atoms: _225  and  _227
REMARK   87  A    between atoms: _227  and  _228
REMARK   88  A    between atoms: _227  and  _230
REMARK   89  A    between atoms: _230  and  _231
REMARK   90  A    between atoms: _231  and  _232
REMARK   91  A    between atoms: _235  and  _237
REMARK   92  A    between atoms: _237  and  _238
REMARK   93  A    between atoms: _237  and  _240
REMARK   94  A    between atoms: _240  and  _241
REMARK   95  A    between atoms: _246  and  _248
REMARK   96  A    between atoms: _248  and  _249
REMARK   97  A    between atoms: _248  and  _251
REMARK   98  A    between atoms: _251  and  _252
REMARK   99  A    between atoms: _255  and  _257
REMARK  100  A    between atoms: _257  and  _258
REMARK  101  A    between atoms: _257  and  _260
REMARK  102  A    between atoms: _260  and  _261
REMARK  103  A    between atoms: _264  and  _266
REMARK  104  A    between atoms: _266  and  _267
REMARK  105  A    between atoms: _266  and  _269
REMARK  106  A    between atoms: _269  and  _270
REMARK  107  A    between atoms: _275  and  _277
REMARK  108  A    between atoms: _277  and  _278
REMARK  109  A    between atoms: _277  and  _280
REMARK  110  A    between atoms: _280  and  _281
REMARK  111  A    between atoms: _284  and  _286
REMARK  112  A    between atoms: _286  and  _287
REMARK  113  A    between atoms: _286  and  _289
REMARK  114  A    between atoms: _289  and  _290
REMARK  115  A    between atoms: _295  and  _297
REMARK  116  A    between atoms: _297  and  _298
REMARK  117  A    between atoms: _297  and  _300
REMARK  118  A    between atoms: _300  and  _301
REMARK  119  A    between atoms: _306  and  _308
REMARK  120  A    between atoms: _308  and  _309
REMARK  121  A    between atoms: _308  and  _311
REMARK  122  A    between atoms: _311  and  _312
REMARK  123  A    between atoms: _315  and  _317
REMARK  124  A    between atoms: _317  and  _318
REMARK  125  A    between atoms: _317  and  _320
REMARK  126  A    between atoms: _323  and  _325
REMARK  127  A    between atoms: _325  and  _326
REMARK  128  A    between atoms: _325  and  _328
REMARK  129  A    between atoms: _328  and  _329
REMARK  130  A    between atoms: _332  and  _334
REMARK  131  A    between atoms: _334  and  _335
REMARK  132  A    between atoms: _334  and  _337
REMARK  133  A    between atoms: _337  and  _338
REMARK  134  A    between atoms: _338  and  _339
REMARK  135  A    between atoms: _342  and  _344
REMARK  136  A    between atoms: _344  and  _345
REMARK  137  A    between atoms: _348  and  _350
REMARK  138  A    between atoms: _350  and  _351
REMARK  139  A    between atoms: _350  and  _353
REMARK  140  A    between atoms: _353  and  _354
REMARK  141  A    between atoms: _357  and  _359
REMARK  142  A    between atoms: _359  and  _360
REMARK  143  A    between atoms: _359  and  _362
REMARK  144  A    between atoms: _362  and  _363
REMARK  145  A    between atoms: _363  and  _364
REMARK  146  A    between atoms: _367  and  _369
REMARK  147  A    between atoms: _369  and  _370
REMARK  148  A    between atoms: _369  and  _372
REMARK  149  A    between atoms: _372  and  _373
REMARK  150  A    between atoms: _378  and  _380
REMARK  151  A    between atoms: _380  and  _381
REMARK  152  A    between atoms: _383  and  _385
REMARK  153  A    between atoms: _385  and  _386
REMARK  154  A    between atoms: _385  and  _388
REMARK  155  A    between atoms: _391  and  _393
REMARK  156  A    between atoms: _393  and  _394
REMARK  157  A    between atoms: _397  and  _399
REMARK  158  A    between atoms: _399  and  _400
REMARK  159  A    between atoms: _399  and  _402
REMARK  160  A    between atoms: _402  and  _403
REMARK  161  A    between atoms: _408  and  _410
REMARK  162  A    between atoms: _410  and  _411
REMARK  163  A    between atoms: _410  and  _413
REMARK  164  A    between atoms: _413  and  _414
REMARK  165  A    between atoms: _414  and  _415
REMARK  166  A    between atoms: _415  and  _416
REMARK  167  A    between atoms: _416  and  _417
REMARK  168  A    between atoms: _421  and  _423
REMARK  169  A    between atoms: _423  and  _424
REMARK  170  A    between atoms: _423  and  _426
REMARK  171  A    between atoms: _426  and  _427
REMARK  172  A    between atoms: _430  and  _432
REMARK  173  A    between atoms: _432  and  _433
REMARK  174  A    between atoms: _432  and  _435
REMARK  175  A    between atoms: _435  and  _436
REMARK  176  A    between atoms: _441  and  _443
REMARK  177  A    between atoms: _443  and  _444
REMARK  178  A    between atoms: _446  and  _448
REMARK  179  A    between atoms: _448  and  _449
REMARK  180  A    between atoms: _448  and  _451
REMARK  181  A    between atoms: _451  and  _452
REMARK  182  A    between atoms: _452  and  _453
REMARK  183  A    between atoms: _453  and  _454
REMARK  184  A    between atoms: _454  and  _455
REMARK  185  A    between atoms: _459  and  _461
REMARK  186  A    between atoms: _461  and  _462
REMARK  187  A    between atoms: _461  and  _464
REMARK  188  A    between atoms: _464  and  _465
REMARK  189  A    between atoms: _465  and  _466
REMARK  190  A    between atoms: _466  and  _467
REMARK  191  A    between atoms: _476  and  _478
REMARK  192  A    between atoms: _478  and  _479
REMARK  193  A    between atoms: _478  and  _481
REMARK  194  A    between atoms: _481  and  _482
REMARK  195  A    between atoms: _487  and  _488
REMARK  196  A    between atoms: _490  and  _492
REMARK  197  A    between atoms: _492  and  _493
REMARK  198  A    between atoms: _492  and  _495
REMARK  199  A    between atoms: _495  and  _496
REMARK  200  A    between atoms: _496  and  _497
REMARK  201  A    between atoms: _497  and  _498
REMARK  202  A    between atoms: _498  and  _499
REMARK  203  A    between atoms: _503  and  _505
REMARK  204  A    between atoms: _505  and  _506
REMARK  205  A    between atoms: _505  and  _508
REMARK  206  A    between atoms: _508  and  _509
REMARK  207  A    between atoms: _511  and  _513
REMARK  208  A    between atoms: _513  and  _514
REMARK  209  A    between atoms: _513  and  _516
REMARK  210  A    between atoms: _516  and  _517
REMARK  211  A    between atoms: _520  and  _522
REMARK  212  A    between atoms: _522  and  _523
REMARK  213  A    between atoms: _522  and  _525
REMARK  214  A    between atoms: _525  and  _526
REMARK  215  A    between atoms: _526  and  _527
REMARK  216  A    between atoms: _530  and  _532
REMARK  217  A    between atoms: _532  and  _533
REMARK  218  A    between atoms: _536  and  _538
REMARK  219  A    between atoms: _538  and  _539
REMARK  220  A    between atoms: _538  and  _541
REMARK  221  A    between atoms: _541  and  _542
REMARK  222  A    between atoms: _544  and  _546
REMARK  223  A    between atoms: _546  and  _547
REMARK  224  A    between atoms: _549  and  _551
REMARK  225  A    between atoms: _551  and  _552
REMARK  226  A    between atoms: _551  and  _554
REMARK  227  A    between atoms: _554  and  _555
REMARK  228  A    between atoms: _558  and  _560
REMARK  229  A    between atoms: _560  and  _561
REMARK  230  A    between atoms: _563  and  _565
REMARK  231  A    between atoms: _565  and  _566
REMARK  232  A    between atoms: _565  and  _568
REMARK  233  A    between atoms: _568  and  _569
REMARK  234  A    between atoms: _574  and  _576
REMARK  235  A    between atoms: _576  and  _577
REMARK  236  A    between atoms: _576  and  _579
REMARK  237  A    between atoms: _579  and  _580
REMARK  238  A    between atoms: _580  and  _581
REMARK  239  A    between atoms: _588  and  _589
REMARK  240  A    between atoms: _589  and  _605
REMARK  241  A    between atoms: _590  and  _592
REMARK  242  A    between atoms: _592  and  _593
REMARK  243  A    between atoms: _593  and  _594
REMARK  244  A    between atoms: _598  and  _600
REMARK  245  A    between atoms: _600  and  _601
REMARK  246  A    between atoms: _600  and  _608
REMARK  247  A    between atoms: _601  and  _602
REMARK  248  A    between atoms: _602  and  _603
REMARK  249  A    between atoms: _603  and  _604
REMARK  250  A    between atoms: _604  and  _605
REMARK  251  A    between atoms: _610  and  _612
REMARK  252  A    between atoms: _612  and  _613
REMARK  253  A    between atoms: _612  and  _615
REMARK  254  A    between atoms: _615  and  _616
REMARK  255  A    between atoms: _619  and  _621
REMARK  256  A    between atoms: _621  and  _622
REMARK  257  A    between atoms: _624  and  _626
REMARK  258  A    between atoms: _626  and  _627
REMARK  259  A    between atoms: _630  and  _632
REMARK  260  A    between atoms: _632  and  _633
REMARK  261  A    between atoms: _632  and  _635
REMARK  262  A    between atoms: _635  and  _636
REMARK  263  A    between atoms: _641  and  _642
REMARK                            x       y       z     vdW  Elec       q    Type
REMARK                         _______ _______ _______ _____ _____    ______ ____
ROOT
ATOM      1  O   HOH     1      35.682  28.445  37.212  0.00  0.00    +0.000 OA
ENDROOT
TORSDOF 0
REMARK  Name = ../refined-set-2016/2qrg/2qrg_pocket.pdb
REMARK  263 active torsions:
REMARK  status: ('A' for Active; 'I' for Inactive)
REMARK    1  A    between atoms: _1  and  _3
REMARK    2  A    between atoms: _3  and  _4
REMARK    3  A    between atoms: _3  and  _6
REMARK    4  A    between atoms: _6  and  _7
REMARK    5  A    between atoms: _12  and  _13
REMARK    6  A    between atoms: _15  and  _17
REMARK    7  A    between atoms: _17  and  _18
REMARK    8  A    between atoms: _17  and  _20
REMARK    9  A    between atoms: _20  and  _21
REMARK   10  A    between atoms: _24  and  _26
REMARK   11  A    between atoms: _26  and  _27
REMARK   12  A    between atoms: _26  and  _29
REMARK   13  A    between atoms: _29  and  _30
REMARK   14  A    between atoms: _30  and  _31
REMARK   15  A    between atoms: _34  and  _36
REMARK   16  A    between atoms: _36  and  _37
REMARK   17  A    between atoms: _36  and  _39
REMARK   18  A    between atoms: _39  and  _40
REMARK   19  A    between atoms: _45  and  _47
REMARK   20  A    between atoms: _47  and  _48
REMARK   21  A    between atoms: _50  and  _52
REMARK   22  A    between atoms: _52  and  _53
REMARK   23  A    between atoms: _55  and  _57
REMARK   24  A    between atoms: _57  and  _58
REMARK   25  A    between atoms: _57  and  _60
REMARK   26  A    between atoms: _60  and  _61
REMARK   27  A    between atoms: _64  and  _66
REMARK   28  A    between atoms: _66  and  _67
REMARK   29  A    between atoms: _69  and  _71
REMARK   30  A    between atoms: _71  and  _72
REMARK   31  A    between atoms: _71  and  _74
REMARK   32  A    between atoms: _74  and  _75
REMARK   33  A    between atoms: _75  and  _76
REMARK   34  A    between atoms: _76  and  _77
REMARK   35  A    between atoms: _86  and  _88
REMARK   36  A    between atoms: _88  and  _89
REMARK   37  A    between atoms: _88  and  _91
REMARK   38  A    between atoms: _91  and  _92
REMARK   39  A    between atoms: _95  and  _97
REMARK   40  A    between atoms: _97  and  _98
REMARK   41  A    between atoms: _101  and  _103
REMARK   42  A    between atoms: _103  and  _104
REMARK   43  A    between atoms: _103  and  _106
REMARK   44  A    between atoms: _106  and  _107
REMARK   45  A    between atoms: _113  and  _115
REMARK   46  A    between atoms: _115  and  _116
REMARK   47  A    between atoms: _115  and  _118
REMARK   48  A    between atoms: _118  and  _119
REMARK   49  A    between atoms: _122  and  _124
REMARK   50  A    between atoms: _124  and  _125
REMARK   51  A    between atoms: _124  and  _127
REMARK   52  A    between atoms: _127  and  _128
REMARK   53  A    between atoms: _133  and  _134
REMARK   54  A    between atoms: _137  and  _138
REMARK   55  A    between atoms: _143  and  _145
REMARK   56  A    between atoms: _145  and  _146
REMARK   57  A    between atoms: _145  and  _148
REMARK   58  A    between atoms: _148  and  _149
REMARK   59  A    between atoms: _154  and  _156
REMARK   60  A    between atoms: _156  and  _157
REMARK   61  A    between atoms: _156  and  _159
REMARK   62  A    between atoms: _159  and  _160
REMARK   63  A    between atoms: _163  and  _165
REMARK   64  A    between atoms: _165  and  _166
REMARK   65  A    between atoms: _165  and  _168
REMARK   66  A    between atoms: _168  and  _169
REMARK   67  A    between atoms: _174  and  _176
REMARK   68  A    between atoms: _176  and  _177
REMARK   69  A    between atoms: _176  and  _179
REMARK   70  A    between atoms: _179  and  _180
REMARK   71  A    between atoms: _186  and  _188
REMARK   72  A    between atoms: _188  and  _189
REMARK   73  A    between atoms: _188  and  _191
REMARK   74  A    between atoms: _191  and  _192
REMARK   75  A    between atoms: _198  and  _200
REMARK   76  A    between atoms: _200  and  _201
REMARK   77  A    between atoms: _200  and  _203
REMARK   78  A    between atoms: _203  and  _204
REMARK   79  A    between atoms: _204  and  _205
REMARK   80  A    between atoms: _208  and  _210
REMARK   81  A    between atoms: _210  and  _211
REMARK   82  A    between atoms: _210  and  _213
REMARK   83  A    between atoms: _213  and  _214
REMARK   84  A    between atoms: _214  and  _215
REMARK   85  A    between atoms: _215  and  _216
REMARK   86  A    between atoms: _225  and  _227
REMARK   87  A    between atoms: _227  and  _228
REMARK   88  A    between atoms: _227  and  _230
REMARK   89  A    between atoms: _230  and  _231
REMARK   90  A    between atoms: _231  and  _232
REMARK   91  A    between atoms: _235  and  _237
REMARK   92  A    between atoms: _237  and  _238
REMARK   93  A    between atoms: _237  and  _240
REMARK   94  A    between atoms: _240  and  _241
REMARK   95  A    between atoms: _246  and  _248
REMARK   96  A    between atoms: _248  and  _249
REMARK   97  A    between atoms: _248  and  _251
REMARK   98  A    between atoms: _251  and  _252
REMARK   99  A    between atoms: _255  and  _257
REMARK  100  A    between atoms: _257  and  _258
REMARK  101  A    between atoms: _257  and  _260
REMARK  102  A    between atoms: _260  and  _261
REMARK  103  A    between atoms: _264  and  _266
REMARK  104  A    between atoms: _266  and  _267
REMARK  105  A    between atoms: _266  and  _269
REMARK  106  A    between atoms: _269  and  _270
REMARK  107  A    between atoms: _275  and  _277
REMARK  108  A    between atoms: _277  and  _278
REMARK  109  A    between atoms: _277  and  _280
REMARK  110  A    between atoms: _280  and  _281
REMARK  111  A    between atoms: _284  and  _286
REMARK  112  A    between atoms: _286  and  _287
REMARK  113  A    between atoms: _286  and  _289
REMARK  114  A    between atoms: _289  and  _290
REMARK  115  A    between atoms: _295  and  _297
REMARK  116  A    between atoms: _297  and  _298
REMARK  117  A    between atoms: _297  and  _300
REMARK  118  A    between atoms: _300  and  _301
REMARK  119  A    between atoms: _306  and  _308
REMARK  120  A    between atoms: _308  and  _309
REMARK  121  A    between atoms: _308  and  _311
REMARK  122  A    between atoms: _311  and  _312
REMARK  123  A    between atoms: _315  and  _317
REMARK  124  A    between atoms: _317  and  _318
REMARK  125  A    between atoms: _317  and  _320
REMARK  126  A    between atoms: _323  and  _325
REMARK  127  A    between atoms: _325  and  _326
REMARK  128  A    between atoms: _325  and  _328
REMARK  129  A    between atoms: _328  and  _329
REMARK  130  A    between atoms: _332  and  _334
REMARK  131  A    between atoms: _334  and  _335
REMARK  132  A    between atoms: _334  and  _337
REMARK  133  A    between atoms: _337  and  _338
REMARK  134  A    between atoms: _338  and  _339
REMARK  135  A    between atoms: _342  and  _344
REMARK  136  A    between atoms: _344  and  _345
REMARK  137  A    between atoms: _348  and  _350
REMARK  138  A    between atoms: _350  and  _351
REMARK  139  A    between atoms: _350  and  _353
REMARK  140  A    between atoms: _353  and  _354
REMARK  141  A    between atoms: _357  and  _359
REMARK  142  A    between atoms: _359  and  _360
REMARK  143  A    between atoms: _359  and  _362
REMARK  144  A    between atoms: _362  and  _363
REMARK  145  A    between atoms: _363  and  _364
REMARK  146  A    between atoms: _367  and  _369
REMARK  147  A    between atoms: _369  and  _370
REMARK  148  A    between atoms: _369  and  _372
REMARK  149  A    between atoms: _372  and  _373
REMARK  150  A    between atoms: _378  and  _380
REMARK  151  A    between atoms: _380  and  _381
REMARK  152  A    between atoms: _383  and  _385
REMARK  153  A    between atoms: _385  and  _386
REMARK  154  A    between atoms: _385  and  _388
REMARK  155  A    between atoms: _391  and  _393
REMARK  156  A    between atoms: _393  and  _394
REMARK  157  A    between atoms: _397  and  _399
REMARK  158  A    between atoms: _399  and  _400
REMARK  159  A    between atoms: _399  and  _402
REMARK  160  A    between atoms: _402  and  _403
REMARK  161  A    between atoms: _408  and  _410
REMARK  162  A    between atoms: _410  and  _411
REMARK  163  A    between atoms: _410  and  _413
REMARK  164  A    between atoms: _413  and  _414
REMARK  165  A    between atoms: _414  and  _415
REMARK  166  A    between atoms: _415  and  _416
REMARK  167  A    between atoms: _416  and  _417
REMARK  168  A    between atoms: _421  and  _423
REMARK  169  A    between atoms: _423  and  _424
REMARK  170  A    between atoms: _423  and  _426
REMARK  171  A    between atoms: _426  and  _427
REMARK  172  A    between atoms: _430  and  _432
REMARK  173  A    between atoms: _432  and  _433
REMARK  174  A    between atoms: _432  and  _435
REMARK  175  A    between atoms: _435  and  _436
REMARK  176  A    between atoms: _441  and  _443
REMARK  177  A    between atoms: _443  and  _444
REMARK  178  A    between atoms: _446  and  _448
REMARK  179  A    between atoms: _448  and  _449
REMARK  180  A    between atoms: _448  and  _451
REMARK  181  A    between atoms: _451  and  _452
REMARK  182  A    between atoms: _452  and  _453
REMARK  183  A    between atoms: _453  and  _454
REMARK  184  A    between atoms: _454  and  _455
REMARK  185  A    between atoms: _459  and  _461
REMARK  186  A    between atoms: _461  and  _462
REMARK  187  A    between atoms: _461  and  _464
REMARK  188  A    between atoms: _464  and  _465
REMARK  189  A    between atoms: _465  and  _466
REMARK  190  A    between atoms: _466  and  _467
REMARK  191  A    between atoms: _476  and  _478
REMARK  192  A    between atoms: _478  and  _479
REMARK  193  A    between atoms: _478  and  _481
REMARK  194  A    between atoms: _481  and  _482
REMARK  195  A    between atoms: _487  and  _488
REMARK  196  A    between atoms: _490  and  _492
REMARK  197  A    between atoms: _492  and  _493
REMARK  198  A    between atoms: _492  and  _495
REMARK  199  A    between atoms: _495  and  _496
REMARK  200  A    between atoms: _496  and  _497
REMARK  201  A    between atoms: _497  and  _498
REMARK  202  A    between atoms: _498  and  _499
REMARK  203  A    between atoms: _503  and  _505
REMARK  204  A    between atoms: _505  and  _506
REMARK  205  A    between atoms: _505  and  _508
REMARK  206  A    between atoms: _508  and  _509
REMARK  207  A    between atoms: _511  and  _513
REMARK  208  A    between atoms: _513  and  _514
REMARK  209  A    between atoms: _513  and  _516
REMARK  210  A    between atoms: _516  and  _517
REMARK  211  A    between atoms: _520  and  _522
REMARK  212  A    between atoms: _522  and  _523
REMARK  213  A    between atoms: _522  and  _525
REMARK  214  A    between atoms: _525  and  _526
REMARK  215  A    between atoms: _526  and  _527
REMARK  216  A    between atoms: _530  and  _532
REMARK  217  A    between atoms: _532  and  _533
REMARK  218  A    between atoms: _536  and  _538
REMARK  219  A    between atoms: _538  and  _539
REMARK  220  A    between atoms: _538  and  _541
REMARK  221  A    between atoms: _541  and  _542
REMARK  222  A    between atoms: _544  and  _546
REMARK  223  A    between atoms: _546  and  _547
REMARK  224  A    between atoms: _549  and  _551
REMARK  225  A    between atoms: _551  and  _552
REMARK  226  A    between atoms: _551  and  _554
REMARK  227  A    between atoms: _554  and  _555
REMARK  228  A    between atoms: _558  and  _560
REMARK  229  A    between atoms: _560  and  _561
REMARK  230  A    between atoms: _563  and  _565
REMARK  231  A    between atoms: _565  and  _566
REMARK  232  A    between atoms: _565  and  _568
REMARK  233  A    between atoms: _568  and  _569
REMARK  234  A    between atoms: _574  and  _576
REMARK  235  A    between atoms: _576  and  _577
REMARK  236  A    between atoms: _576  and  _579
REMARK  237  A    between atoms: _579  and  _580
REMARK  238  A    between atoms: _580  and  _581
REMARK  239  A    between atoms: _588  and  _589
REMARK  240  A    between atoms: _589  and  _605
REMARK  241  A    between atoms: _590  and  _592
REMARK  242  A    between atoms: _592  and  _593
REMARK  243  A    between atoms: _593  and  _594
REMARK  244  A    between atoms: _598  and  _600
REMARK  245  A    between atoms: _600  and  _601
REMARK  246  A    between atoms: _600  and  _608
REMARK  247  A    between atoms: _601  and  _602
REMARK  248  A    between atoms: _602  and  _603
REMARK  249  A    between atoms: _603  and  _604
REMARK  250  A    between atoms: _604  and  _605
REMARK  251  A    between atoms: _610  and  _612
REMARK  252  A    between atoms: _612  and  _613
REMARK  253  A    between atoms: _612  and  _615
REMARK  254  A    between atoms: _615  and  _616
REMARK  255  A    between atoms: _619  and  _621
REMARK  256  A    between atoms: _621  and  _622
REMARK  257  A    between atoms: _624  and  _626
REMARK  258  A    between atoms: _626  and  _627
REMARK  259  A    between atoms: _630  and  _632
REMARK  260  A    between atoms: _632  and  _633
REMARK  261  A    between atoms: _632  and  _635
REMARK  262  A    between atoms: _635  and  _636
REMARK  263  A    between atoms: _641  and  _642
REMARK                            x       y       z     vdW  Elec       q    Type
REMARK                         _______ _______ _______ _____ _____    ______ ____
ROOT
ATOM      1  O   HOH     1      31.592  25.342  31.502  0.00  0.00    +0.000 OA
ENDROOT
TORSDOF 0
REMARK  Name = ../refined-set-2016/2qrg/2qrg_pocket.pdb
REMARK  263 active torsions:
REMARK  status: ('A' for Active; 'I' for Inactive)
REMARK    1  A    between atoms: _1  and  _3
REMARK    2  A    between atoms: _3  and  _4
REMARK    3  A    between atoms: _3  and  _6
REMARK    4  A    between atoms: _6  and  _7
REMARK    5  A    between atoms: _12  and  _13
REMARK    6  A    between atoms: _15  and  _17
REMARK    7  A    between atoms: _17  and  _18
REMARK    8  A    between atoms: _17  and  _20
REMARK    9  A    between atoms: _20  and  _21
REMARK   10  A    between atoms: _24  and  _26
REMARK   11  A    between atoms: _26  and  _27
REMARK   12  A    between atoms: _26  and  _29
REMARK   13  A    between atoms: _29  and  _30
REMARK   14  A    between atoms: _30  and  _31
REMARK   15  A    between atoms: _34  and  _36
REMARK   16  A    between atoms: _36  and  _37
REMARK   17  A    between atoms: _36  and  _39
REMARK   18  A    between atoms: _39  and  _40
REMARK   19  A    between atoms: _45  and  _47
REMARK   20  A    between atoms: _47  and  _48
REMARK   21  A    between atoms: _50  and  _52
REMARK   22  A    between atoms: _52  and  _53
REMARK   23  A    between atoms: _55  and  _57
REMARK   24  A    between atoms: _57  and  _58
REMARK   25  A    between atoms: _57  and  _60
REMARK   26  A    between atoms: _60  and  _61
REMARK   27  A    between atoms: _64  and  _66
REMARK   28  A    between atoms: _66  and  _67
REMARK   29  A    between atoms: _69  and  _71
REMARK   30  A    between atoms: _71  and  _72
REMARK   31  A    between atoms: _71  and  _74
REMARK   32  A    between atoms: _74  and  _75
REMARK   33  A    between atoms: _75  and  _76
REMARK   34  A    between atoms: _76  and  _77
REMARK   35  A    between atoms: _86  and  _88
REMARK   36  A    between atoms: _88  and  _89
REMARK   37  A    between atoms: _88  and  _91
REMARK   38  A    between atoms: _91  and  _92
REMARK   39  A    between atoms: _95  and  _97
REMARK   40  A    between atoms: _97  and  _98
REMARK   41  A    between atoms: _101  and  _103
REMARK   42  A    between atoms: _103  and  _104
REMARK   43  A    between atoms: _103  and  _106
REMARK   44  A    between atoms: _106  and  _107
REMARK   45  A    between atoms: _113  and  _115
REMARK   46  A    between atoms: _115  and  _116
REMARK   47  A    between atoms: _115  and  _118
REMARK   48  A    between atoms: _118  and  _119
REMARK   49  A    between atoms: _122  and  _124
REMARK   50  A    between atoms: _124  and  _125
REMARK   51  A    between atoms: _124  and  _127
REMARK   52  A    between atoms: _127  and  _128
REMARK   53  A    between atoms: _133  and  _134
REMARK   54  A    between atoms: _137  and  _138
REMARK   55  A    between atoms: _143  and  _145
REMARK   56  A    between atoms: _145  and  _146
REMARK   57  A    between atoms: _145  and  _148
REMARK   58  A    between atoms: _148  and  _149
REMARK   59  A    between atoms: _154  and  _156
REMARK   60  A    between atoms: _156  and  _157
REMARK   61  A    between atoms: _156  and  _159
REMARK   62  A    between atoms: _159  and  _160
REMARK   63  A    between atoms: _163  and  _165
REMARK   64  A    between atoms: _165  and  _166
REMARK   65  A    between atoms: _165  and  _168
REMARK   66  A    between atoms: _168  and  _169
REMARK   67  A    between atoms: _174  and  _176
REMARK   68  A    between atoms: _176  and  _177
REMARK   69  A    between atoms: _176  and  _179
REMARK   70  A    between atoms: _179  and  _180
REMARK   71  A    between atoms: _186  and  _188
REMARK   72  A    between atoms: _188  and  _189
REMARK   73  A    between atoms: _188  and  _191
REMARK   74  A    between atoms: _191  and  _192
REMARK   75  A    between atoms: _198  and  _200
REMARK   76  A    between atoms: _200  and  _201
REMARK   77  A    between atoms: _200  and  _203
REMARK   78  A    between atoms: _203  and  _204
REMARK   79  A    between atoms: _204  and  _205
REMARK   80  A    between atoms: _208  and  _210
REMARK   81  A    between atoms: _210  and  _211
REMARK   82  A    between atoms: _210  and  _213
REMARK   83  A    between atoms: _213  and  _214
REMARK   84  A    between atoms: _214  and  _215
REMARK   85  A    between atoms: _215  and  _216
REMARK   86  A    between atoms: _225  and  _227
REMARK   87  A    between atoms: _227  and  _228
REMARK   88  A    between atoms: _227  and  _230
REMARK   89  A    between atoms: _230  and  _231
REMARK   90  A    between atoms: _231  and  _232
REMARK   91  A    between atoms: _235  and  _237
REMARK   92  A    between atoms: _237  and  _238
REMARK   93  A    between atoms: _237  and  _240
REMARK   94  A    between atoms: _240  and  _241
REMARK   95  A    between atoms: _246  and  _248
REMARK   96  A    between atoms: _248  and  _249
REMARK   97  A    between atoms: _248  and  _251
REMARK   98  A    between atoms: _251  and  _252
REMARK   99  A    between atoms: _255  and  _257
REMARK  100  A    between atoms: _257  and  _258
REMARK  101  A    between atoms: _257  and  _260
REMARK  102  A    between atoms: _260  and  _261
REMARK  103  A    between atoms: _264  and  _266
REMARK  104  A    between atoms: _266  and  _267
REMARK  105  A    between atoms: _266  and  _269
REMARK  106  A    between atoms: _269  and  _270
REMARK  107  A    between atoms: _275  and  _277
REMARK  108  A    between atoms: _277  and  _278
REMARK  109  A    between atoms: _277  and  _280
REMARK  110  A    between atoms: _280  and  _281
REMARK  111  A    between atoms: _284  and  _286
REMARK  112  A    between atoms: _286  and  _287
REMARK  113  A    between atoms: _286  and  _289
REMARK  114  A    between atoms: _289  and  _290
REMARK  115  A    between atoms: _295  and  _297
REMARK  116  A    between atoms: _297  and  _298
REMARK  117  A    between atoms: _297  and  _300
REMARK  118  A    between atoms: _300  and  _301
REMARK  119  A    between atoms: _306  and  _308
REMARK  120  A    between atoms: _308  and  _309
REMARK  121  A    between atoms: _308  and  _311
REMARK  122  A    between atoms: _311  and  _312
REMARK  123  A    between atoms: _315  and  _317
REMARK  124  A    between atoms: _317  and  _318
REMARK  125  A    between atoms: _317  and  _320
REMARK  126  A    between atoms: _323  and  _325
REMARK  127  A    between atoms: _325  and  _326
REMARK  128  A    between atoms: _325  and  _328
REMARK  129  A    between atoms: _328  and  _329
REMARK  130  A    between atoms: _332  and  _334
REMARK  131  A    between atoms: _334  and  _335
REMARK  132  A    between atoms: _334  and  _337
REMARK  133  A    between atoms: _337  and  _338
REMARK  134  A    between atoms: _338  and  _339
REMARK  135  A    between atoms: _342  and  _344
REMARK  136  A    between atoms: _344  and  _345
REMARK  137  A    between atoms: _348  and  _350
REMARK  138  A    between atoms: _350  and  _351
REMARK  139  A    between atoms: _350  and  _353
REMARK  140  A    between atoms: _353  and  _354
REMARK  141  A    between atoms: _357  and  _359
REMARK  142  A    between atoms: _359  and  _360
REMARK  143  A    between atoms: _359  and  _362
REMARK  144  A    between atoms: _362  and  _363
REMARK  145  A    between atoms: _363  and  _364
REMARK  146  A    between atoms: _367  and  _369
REMARK  147  A    between atoms: _369  and  _370
REMARK  148  A    between atoms: _369  and  _372
REMARK  149  A    between atoms: _372  and  _373
REMARK  150  A    between atoms: _378  and  _380
REMARK  151  A    between atoms: _380  and  _381
REMARK  152  A    between atoms: _383  and  _385
REMARK  153  A    between atoms: _385  and  _386
REMARK  154  A    between atoms: _385  and  _388
REMARK  155  A    between atoms: _391  and  _393
REMARK  156  A    between atoms: _393  and  _394
REMARK  157  A    between atoms: _397  and  _399
REMARK  158  A    between atoms: _399  and  _400
REMARK  159  A    between atoms: _399  and  _402
REMARK  160  A    between atoms: _402  and  _403
REMARK  161  A    between atoms: _408  and  _410
REMARK  162  A    between atoms: _410  and  _411
REMARK  163  A    between atoms: _410  and  _413
REMARK  164  A    between atoms: _413  and  _414
REMARK  165  A    between atoms: _414  and  _415
REMARK  166  A    between atoms: _415  and  _416
REMARK  167  A    between atoms: _416  and  _417
REMARK  168  A    between atoms: _421  and  _423
REMARK  169  A    between atoms: _423  and  _424
REMARK  170  A    between atoms: _423  and  _426
REMARK  171  A    between atoms: _426  and  _427
REMARK  172  A    between atoms: _430  and  _432
REMARK  173  A    between atoms: _432  and  _433
REMARK  174  A    between atoms: _432  and  _435
REMARK  175  A    between atoms: _435  and  _436
REMARK  176  A    between atoms: _441  and  _443
REMARK  177  A    between atoms: _443  and  _444
REMARK  178  A    between atoms: _446  and  _448
REMARK  179  A    between atoms: _448  and  _449
REMARK  180  A    between atoms: _448  and  _451
REMARK  181  A    between atoms: _451  and  _452
REMARK  182  A    between atoms: _452  and  _453
REMARK  183  A    between atoms: _453  and  _454
REMARK  184  A    between atoms: _454  and  _455
REMARK  185  A    between atoms: _459  and  _461
REMARK  186  A    between atoms: _461  and  _462
REMARK  187  A    between atoms: _461  and  _464
REMARK  188  A    between atoms: _464  and  _465
REMARK  189  A    between atoms: _465  and  _466
REMARK  190  A    between atoms: _466  and  _467
REMARK  191  A    between atoms: _476  and  _478
REMARK  192  A    between atoms: _478  and  _479
REMARK  193  A    between atoms: _478  and  _481
REMARK  194  A    between atoms: _481  and  _482
REMARK  195  A    between atoms: _487  and  _488
REMARK  196  A    between atoms: _490  and  _492
REMARK  197  A    between atoms: _492  and  _493
REMARK  198  A    between atoms: _492  and  _495
REMARK  199  A    between atoms: _495  and  _496
REMARK  200  A    between atoms: _496  and  _497
REMARK  201  A    between atoms: _497  and  _498
REMARK  202  A    between atoms: _498  and  _499
REMARK  203  A    between atoms: _503  and  _505
REMARK  204  A    between atoms: _505  and  _506
REMARK  205  A    between atoms: _505  and  _508
REMARK  206  A    between atoms: _508  and  _509
REMARK  207  A    between atoms: _511  and  _513
REMARK  208  A    between atoms: _513  and  _514
REMARK  209  A    between atoms: _513  and  _516
REMARK  210  A    between atoms: _516  and  _517
REMARK  211  A    between atoms: _520  and  _522
REMARK  212  A    between atoms: _522  and  _523
REMARK  213  A    between atoms: _522  and  _525
REMARK  214  A    between atoms: _525  and  _526
REMARK  215  A    between atoms: _526  and  _527
REMARK  216  A    between atoms: _530  and  _532
REMARK  217  A    between atoms: _532  and  _533
REMARK  218  A    between atoms: _536  and  _538
REMARK  219  A    between atoms: _538  and  _539
REMARK  220  A    between atoms: _538  and  _541
REMARK  221  A    between atoms: _541  and  _542
REMARK  222  A    between atoms: _544  and  _546
REMARK  223  A    between atoms: _546  and  _547
REMARK  224  A    between atoms: _549  and  _551
REMARK  225  A    between atoms: _551  and  _552
REMARK  226  A    between atoms: _551  and  _554
REMARK  227  A    between atoms: _554  and  _555
REMARK  228  A    between atoms: _558  and  _560
REMARK  229  A    between atoms: _560  and  _561
REMARK  230  A    between atoms: _563  and  _565
REMARK  231  A    between atoms: _565  and  _566
REMARK  232  A    between atoms: _565  and  _568
REMARK  233  A    between atoms: _568  and  _569
REMARK  234  A    between atoms: _574  and  _576
REMARK  235  A    between atoms: _576  and  _577
REMARK  236  A    between atoms: _576  and  _579
REMARK  237  A    between atoms: _579  and  _580
REMARK  238  A    between atoms: _580  and  _581
REMARK  239  A    between atoms: _588  and  _589
REMARK  240  A    between atoms: _589  and  _605
REMARK  241  A    between atoms: _590  and  _592
REMARK  242  A    between atoms: _592  and  _593
REMARK  243  A    between atoms: _593  and  _594
REMARK  244  A    between atoms: _598  and  _600
REMARK  245  A    between atoms: _600  and  _601
REMARK  246  A    between atoms: _600  and  _608
REMARK  247  A    between atoms: _601  and  _602
REMARK  248  A    between atoms: _602  and  _603
REMARK  249  A    between atoms: _603  and  _604
REMARK  250  A    between atoms: _604  and  _605
REMARK  251  A    between atoms: _610  and  _612
REMARK  252  A    between atoms: _612  and  _613
REMARK  253  A    between atoms: _612  and  _615
REMARK  254  A    between atoms: _615  and  _616
REMARK  255  A    between atoms: _619  and  _621
REMARK  256  A    between atoms: _621  and  _622
REMARK  257  A    between atoms: _624  and  _626
REMARK  258  A    between atoms: _626  and  _627
REMARK  259  A    between atoms: _630  and  _632
REMARK  260  A    between atoms: _632  and  _633
REMARK  261  A    between atoms: _632  and  _635
REMARK  262  A    between atoms: _635  and  _636
REMARK  263  A    between atoms: _641  and  _642
REMARK                            x       y       z     vdW  Elec       q    Type
REMARK                         _______ _______ _______ _____ _____    ______ ____
ROOT
ATOM      1  O   HOH     1      40.855  26.571  34.255  0.00  0.00    +0.000 OA
ENDROOT
TORSDOF 0
REMARK  Name = ../refined-set-2016/2qrg/2qrg_pocket.pdb
REMARK  263 active torsions:
REMARK  status: ('A' for Active; 'I' for Inactive)
REMARK    1  A    between atoms: _1  and  _3
REMARK    2  A    between atoms: _3  and  _4
REMARK    3  A    between atoms: _3  and  _6
REMARK    4  A    between atoms: _6  and  _7
REMARK    5  A    between atoms: _12  and  _13
REMARK    6  A    between atoms: _15  and  _17
REMARK    7  A    between atoms: _17  and  _18
REMARK    8  A    between atoms: _17  and  _20
REMARK    9  A    between atoms: _20  and  _21
REMARK   10  A    between atoms: _24  and  _26
REMARK   11  A    between atoms: _26  and  _27
REMARK   12  A    between atoms: _26  and  _29
REMARK   13  A    between atoms: _29  and  _30
REMARK   14  A    between atoms: _30  and  _31
REMARK   15  A    between atoms: _34  and  _36
REMARK   16  A    between atoms: _36  and  _37
REMARK   17  A    between atoms: _36  and  _39
REMARK   18  A    between atoms: _39  and  _40
REMARK   19  A    between atoms: _45  and  _47
REMARK   20  A    between atoms: _47  and  _48
REMARK   21  A    between atoms: _50  and  _52
REMARK   22  A    between atoms: _52  and  _53
REMARK   23  A    between atoms: _55  and  _57
REMARK   24  A    between atoms: _57  and  _58
REMARK   25  A    between atoms: _57  and  _60
REMARK   26  A    between atoms: _60  and  _61
REMARK   27  A    between atoms: _64  and  _66
REMARK   28  A    between atoms: _66  and  _67
REMARK   29  A    between atoms: _69  and  _71
REMARK   30  A    between atoms: _71  and  _72
REMARK   31  A    between atoms: _71  and  _74
REMARK   32  A    between atoms: _74  and  _75
REMARK   33  A    between atoms: _75  and  _76
REMARK   34  A    between atoms: _76  and  _77
REMARK   35  A    between atoms: _86  and  _88
REMARK   36  A    between atoms: _88  and  _89
REMARK   37  A    between atoms: _88  and  _91
REMARK   38  A    between atoms: _91  and  _92
REMARK   39  A    between atoms: _95  and  _97
REMARK   40  A    between atoms: _97  and  _98
REMARK   41  A    between atoms: _101  and  _103
REMARK   42  A    between atoms: _103  and  _104
REMARK   43  A    between atoms: _103  and  _106
REMARK   44  A    between atoms: _106  and  _107
REMARK   45  A    between atoms: _113  and  _115
REMARK   46  A    between atoms: _115  and  _116
REMARK   47  A    between atoms: _115  and  _118
REMARK   48  A    between atoms: _118  and  _119
REMARK   49  A    between atoms: _122  and  _124
REMARK   50  A    between atoms: _124  and  _125
REMARK   51  A    between atoms: _124  and  _127
REMARK   52  A    between atoms: _127  and  _128
REMARK   53  A    between atoms: _133  and  _134
REMARK   54  A    between atoms: _137  and  _138
REMARK   55  A    between atoms: _143  and  _145
REMARK   56  A    between atoms: _145  and  _146
REMARK   57  A    between atoms: _145  and  _148
REMARK   58  A    between atoms: _148  and  _149
REMARK   59  A    between atoms: _154  and  _156
REMARK   60  A    between atoms: _156  and  _157
REMARK   61  A    between atoms: _156  and  _159
REMARK   62  A    between atoms: _159  and  _160
REMARK   63  A    between atoms: _163  and  _165
REMARK   64  A    between atoms: _165  and  _166
REMARK   65  A    between atoms: _165  and  _168
REMARK   66  A    between atoms: _168  and  _169
REMARK   67  A    between atoms: _174  and  _176
REMARK   68  A    between atoms: _176  and  _177
REMARK   69  A    between atoms: _176  and  _179
REMARK   70  A    between atoms: _179  and  _180
REMARK   71  A    between atoms: _186  and  _188
REMARK   72  A    between atoms: _188  and  _189
REMARK   73  A    between atoms: _188  and  _191
REMARK   74  A    between atoms: _191  and  _192
REMARK   75  A    between atoms: _198  and  _200
REMARK   76  A    between atoms: _200  and  _201
REMARK   77  A    between atoms: _200  and  _203
REMARK   78  A    between atoms: _203  and  _204
REMARK   79  A    between atoms: _204  and  _205
REMARK   80  A    between atoms: _208  and  _210
REMARK   81  A    between atoms: _210  and  _211
REMARK   82  A    between atoms: _210  and  _213
REMARK   83  A    between atoms: _213  and  _214
REMARK   84  A    between atoms: _214  and  _215
REMARK   85  A    between atoms: _215  and  _216
REMARK   86  A    between atoms: _225  and  _227
REMARK   87  A    between atoms: _227  and  _228
REMARK   88  A    between atoms: _227  and  _230
REMARK   89  A    between atoms: _230  and  _231
REMARK   90  A    between atoms: _231  and  _232
REMARK   91  A    between atoms: _235  and  _237
REMARK   92  A    between atoms: _237  and  _238
REMARK   93  A    between atoms: _237  and  _240
REMARK   94  A    between atoms: _240  and  _241
REMARK   95  A    between atoms: _246  and  _248
REMARK   96  A    between atoms: _248  and  _249
REMARK   97  A    between atoms: _248  and  _251
REMARK   98  A    between atoms: _251  and  _252
REMARK   99  A    between atoms: _255  and  _257
REMARK  100  A    between atoms: _257  and  _258
REMARK  101  A    between atoms: _257  and  _260
REMARK  102  A    between atoms: _260  and  _261
REMARK  103  A    between atoms: _264  and  _266
REMARK  104  A    between atoms: _266  and  _267
REMARK  105  A    between atoms: _266  and  _269
REMARK  106  A    between atoms: _269  and  _270
REMARK  107  A    between atoms: _275  and  _277
REMARK  108  A    between atoms: _277  and  _278
REMARK  109  A    between atoms: _277  and  _280
REMARK  110  A    between atoms: _280  and  _281
REMARK  111  A    between atoms: _284  and  _286
REMARK  112  A    between atoms: _286  and  _287
REMARK  113  A    between atoms: _286  and  _289
REMARK  114  A    between atoms: _289  and  _290
REMARK  115  A    between atoms: _295  and  _297
REMARK  116  A    between atoms: _297  and  _298
REMARK  117  A    between atoms: _297  and  _300
REMARK  118  A    between atoms: _300  and  _301
REMARK  119  A    between atoms: _306  and  _308
REMARK  120  A    between atoms: _308  and  _309
REMARK  121  A    between atoms: _308  and  _311
REMARK  122  A    between atoms: _311  and  _312
REMARK  123  A    between atoms: _315  and  _317
REMARK  124  A    between atoms: _317  and  _318
REMARK  125  A    between atoms: _317  and  _320
REMARK  126  A    between atoms: _323  and  _325
REMARK  127  A    between atoms: _325  and  _326
REMARK  128  A    between atoms: _325  and  _328
REMARK  129  A    between atoms: _328  and  _329
REMARK  130  A    between atoms: _332  and  _334
REMARK  131  A    between atoms: _334  and  _335
REMARK  132  A    between atoms: _334  and  _337
REMARK  133  A    between atoms: _337  and  _338
REMARK  134  A    between atoms: _338  and  _339
REMARK  135  A    between atoms: _342  and  _344
REMARK  136  A    between atoms: _344  and  _345
REMARK  137  A    between atoms: _348  and  _350
REMARK  138  A    between atoms: _350  and  _351
REMARK  139  A    between atoms: _350  and  _353
REMARK  140  A    between atoms: _353  and  _354
REMARK  141  A    between atoms: _357  and  _359
REMARK  142  A    between atoms: _359  and  _360
REMARK  143  A    between atoms: _359  and  _362
REMARK  144  A    between atoms: _362  and  _363
REMARK  145  A    between atoms: _363  and  _364
REMARK  146  A    between atoms: _367  and  _369
REMARK  147  A    between atoms: _369  and  _370
REMARK  148  A    between atoms: _369  and  _372
REMARK  149  A    between atoms: _372  and  _373
REMARK  150  A    between atoms: _378  and  _380
REMARK  151  A    between atoms: _380  and  _381
REMARK  152  A    between atoms: _383  and  _385
REMARK  153  A    between atoms: _385  and  _386
REMARK  154  A    between atoms: _385  and  _388
REMARK  155  A    between atoms: _391  and  _393
REMARK  156  A    between atoms: _393  and  _394
REMARK  157  A    between atoms: _397  and  _399
REMARK  158  A    between atoms: _399  and  _400
REMARK  159  A    between atoms: _399  and  _402
REMARK  160  A    between atoms: _402  and  _403
REMARK  161  A    between atoms: _408  and  _410
REMARK  162  A    between atoms: _410  and  _411
REMARK  163  A    between atoms: _410  and  _413
REMARK  164  A    between atoms: _413  and  _414
REMARK  165  A    between atoms: _414  and  _415
REMARK  166  A    between atoms: _415  and  _416
REMARK  167  A    between atoms: _416  and  _417
REMARK  168  A    between atoms: _421  and  _423
REMARK  169  A    between atoms: _423  and  _424
REMARK  170  A    between atoms: _423  and  _426
REMARK  171  A    between atoms: _426  and  _427
REMARK  172  A    between atoms: _430  and  _432
REMARK  173  A    between atoms: _432  and  _433
REMARK  174  A    between atoms: _432  and  _435
REMARK  175  A    between atoms: _435  and  _436
REMARK  176  A    between atoms: _441  and  _443
REMARK  177  A    between atoms: _443  and  _444
REMARK  178  A    between atoms: _446  and  _448
REMARK  179  A    between atoms: _448  and  _449
REMARK  180  A    between atoms: _448  and  _451
REMARK  181  A    between atoms: _451  and  _452
REMARK  182  A    between atoms: _452  and  _453
REMARK  183  A    between atoms: _453  and  _454
REMARK  184  A    between atoms: _454  and  _455
REMARK  185  A    between atoms: _459  and  _461
REMARK  186  A    between atoms: _461  and  _462
REMARK  187  A    between atoms: _461  and  _464
REMARK  188  A    between atoms: _464  and  _465
REMARK  189  A    between atoms: _465  and  _466
REMARK  190  A    between atoms: _466  and  _467
REMARK  191  A    between atoms: _476  and  _478
REMARK  192  A    between atoms: _478  and  _479
REMARK  193  A    between atoms: _478  and  _481
REMARK  194  A    between atoms: _481  and  _482
REMARK  195  A    between atoms: _487  and  _488
REMARK  196  A    between atoms: _490  and  _492
REMARK  197  A    between atoms: _492  and  _493
REMARK  198  A    between atoms: _492  and  _495
REMARK  199  A    between atoms: _495  and  _496
REMARK  200  A    between atoms: _496  and  _497
REMARK  201  A    between atoms: _497  and  _498
REMARK  202  A    between atoms: _498  and  _499
REMARK  203  A    between atoms: _503  and  _505
REMARK  204  A    between atoms: _505  and  _506
REMARK  205  A    between atoms: _505  and  _508
REMARK  206  A    between atoms: _508  and  _509
REMARK  207  A    between atoms: _511  and  _513
REMARK  208  A    between atoms: _513  and  _514
REMARK  209  A    between atoms: _513  and  _516
REMARK  210  A    between atoms: _516  and  _517
REMARK  211  A    between atoms: _520  and  _522
REMARK  212  A    between atoms: _522  and  _523
REMARK  213  A    between atoms: _522  and  _525
REMARK  214  A    between atoms: _525  and  _526
REMARK  215  A    between atoms: _526  and  _527
REMARK  216  A    between atoms: _530  and  _532
REMARK  217  A    between atoms: _532  and  _533
REMARK  218  A    between atoms: _536  and  _538
REMARK  219  A    between atoms: _538  and  _539
REMARK  220  A    between atoms: _538  and  _541
REMARK  221  A    between atoms: _541  and  _542
REMARK  222  A    between atoms: _544  and  _546
REMARK  223  A    between atoms: _546  and  _547
REMARK  224  A    between atoms: _549  and  _551
REMARK  225  A    between atoms: _551  and  _552
REMARK  226  A    between atoms: _551  and  _554
REMARK  227  A    between atoms: _554  and  _555
REMARK  228  A    between atoms: _558  and  _560
REMARK  229  A    between atoms: _560  and  _561
REMARK  230  A    between atoms: _563  and  _565
REMARK  231  A    between atoms: _565  and  _566
REMARK  232  A    between atoms: _565  and  _568
REMARK  233  A    between atoms: _568  and  _569
REMARK  234  A    between atoms: _574  and  _576
REMARK  235  A    between atoms: _576  and  _577
REMARK  236  A    between atoms: _576  and  _579
REMARK  237  A    between atoms: _579  and  _580
REMARK  238  A    between atoms: _580  and  _581
REMARK  239  A    between atoms: _588  and  _589
REMARK  240  A    between atoms: _589  and  _605
REMARK  241  A    between atoms: _590  and  _592
REMARK  242  A    between atoms: _592  and  _593
REMARK  243  A    between atoms: _593  and  _594
REMARK  244  A    between atoms: _598  and  _600
REMARK  245  A    between atoms: _600  and  _601
REMARK  246  A    between atoms: _600  and  _608
REMARK  247  A    between atoms: _601  and  _602
REMARK  248  A    between atoms: _602  and  _603
REMARK  249  A    between atoms: _603  and  _604
REMARK  250  A    between atoms: _604  and  _605
REMARK  251  A    between atoms: _610  and  _612
REMARK  252  A    between atoms: _612  and  _613
REMARK  253  A    between atoms: _612  and  _615
REMARK  254  A    between atoms: _615  and  _616
REMARK  255  A    between atoms: _619  and  _621
REMARK  256  A    between atoms: _621  and  _622
REMARK  257  A    between atoms: _624  and  _626
REMARK  258  A    between atoms: _626  and  _627
REMARK  259  A    between atoms: _630  and  _632
REMARK  260  A    between atoms: _632  and  _633
REMARK  261  A    between atoms: _632  and  _635
REMARK  262  A    between atoms: _635  and  _636
REMARK  263  A    between atoms: _641  and  _642
REMARK                            x       y       z     vdW  Elec       q    Type
REMARK                         _______ _______ _______ _____ _____    ______ ____
ROOT
ATOM      1  O   HOH     1      34.061  32.908  31.434  0.00  0.00    +0.000 OA
ENDROOT
TORSDOF 0
