REMARK  Name = ../refined-set-2016/2vwm/2vwm_pocket.pdb
REMARK  221 active torsions:
REMARK  status: ('A' for Active; 'I' for Inactive)
REMARK    1  A    between atoms: _1  and  _5
REMARK    2  A    between atoms: _5  and  _6
REMARK    3  A    between atoms: _5  and  _8
REMARK    4  A    between atoms: _8  and  _9
REMARK    5  A    between atoms: _12  and  _14
REMARK    6  A    between atoms: _14  and  _15
REMARK    7  A    between atoms: _14  and  _17
REMARK    8  A    between atoms: _20  and  _22
REMARK    9  A    between atoms: _22  and  _23
REMARK   10  A    between atoms: _22  and  _25
REMARK   11  A    between atoms: _25  and  _26
REMARK   12  A    between atoms: _31  and  _33
REMARK   13  A    between atoms: _33  and  _34
REMARK   14  A    between atoms: _33  and  _36
REMARK   15  A    between atoms: _36  and  _37
REMARK   16  A    between atoms: _37  and  _38
REMARK   17  A    between atoms: _43  and  _45
REMARK   18  A    between atoms: _45  and  _46
REMARK   19  A    between atoms: _45  and  _48
REMARK   20  A    between atoms: _48  and  _49
REMARK   21  A    between atoms: _52  and  _54
REMARK   22  A    between atoms: _54  and  _55
REMARK   23  A    between atoms: _54  and  _57
REMARK   24  A    between atoms: _57  and  _58
REMARK   25  A    between atoms: _58  and  _59
REMARK   26  A    between atoms: _59  and  _60
REMARK   27  A    between atoms: _60  and  _61
REMARK   28  A    between atoms: _65  and  _67
REMARK   29  A    between atoms: _67  and  _68
REMARK   30  A    between atoms: _67  and  _70
REMARK   31  A    between atoms: _70  and  _71
REMARK   32  A    between atoms: _71  and  _72
REMARK   33  A    between atoms: _75  and  _77
REMARK   34  A    between atoms: _77  and  _78
REMARK   35  A    between atoms: _77  and  _80
REMARK   36  A    between atoms: _80  and  _81
REMARK   37  A    between atoms: _84  and  _86
REMARK   38  A    between atoms: _86  and  _87
REMARK   39  A    between atoms: _86  and  _89
REMARK   40  A    between atoms: _89  and  _90
REMARK   41  A    between atoms: _95  and  _96
REMARK   42  A    between atoms: _98  and  _100
REMARK   43  A    between atoms: _100  and  _101
REMARK   44  A    between atoms: _100  and  _103
REMARK   45  A    between atoms: _103  and  _104
REMARK   46  A    between atoms: _107  and  _109
REMARK   47  A    between atoms: _109  and  _110
REMARK   48  A    between atoms: _109  and  _112
REMARK   49  A    between atoms: _112  and  _113
REMARK   50  A    between atoms: _116  and  _118
REMARK   51  A    between atoms: _118  and  _119
REMARK   52  A    between atoms: _118  and  _121
REMARK   53  A    between atoms: _124  and  _126
REMARK   54  A    between atoms: _126  and  _127
REMARK   55  A    between atoms: _126  and  _129
REMARK   56  A    between atoms: _129  and  _130
REMARK   57  A    between atoms: _130  and  _131
REMARK   58  A    between atoms: _131  and  _132
REMARK   59  A    between atoms: _141  and  _143
REMARK   60  A    between atoms: _143  and  _144
REMARK   61  A    between atoms: _143  and  _146
REMARK   62  A    between atoms: _146  and  _147
REMARK   63  A    between atoms: _152  and  _154
REMARK   64  A    between atoms: _154  and  _155
REMARK   65  A    between atoms: _154  and  _157
REMARK   66  A    between atoms: _157  and  _158
REMARK   67  A    between atoms: _158  and  _159
REMARK   68  A    between atoms: _162  and  _164
REMARK   69  A    between atoms: _164  and  _165
REMARK   70  A    between atoms: _164  and  _167
REMARK   71  A    between atoms: _167  and  _168
REMARK   72  A    between atoms: _168  and  _169
REMARK   73  A    between atoms: _169  and  _170
REMARK   74  A    between atoms: _170  and  _171
REMARK   75  A    between atoms: _175  and  _177
REMARK   76  A    between atoms: _177  and  _178
REMARK   77  A    between atoms: _180  and  _182
REMARK   78  A    between atoms: _182  and  _183
REMARK   79  A    between atoms: _182  and  _185
REMARK   80  A    between atoms: _188  and  _190
REMARK   81  A    between atoms: _190  and  _191
REMARK   82  A    between atoms: _190  and  _193
REMARK   83  A    between atoms: _193  and  _194
REMARK   84  A    between atoms: _196  and  _198
REMARK   85  A    between atoms: _198  and  _199
REMARK   86  A    between atoms: _198  and  _201
REMARK   87  A    between atoms: _201  and  _202
REMARK   88  A    between atoms: _204  and  _206
REMARK   89  A    between atoms: _206  and  _207
REMARK   90  A    between atoms: _206  and  _209
REMARK   91  A    between atoms: _209  and  _210
REMARK   92  A    between atoms: _216  and  _218
REMARK   93  A    between atoms: _218  and  _219
REMARK   94  A    between atoms: _218  and  _221
REMARK   95  A    between atoms: _221  and  _222
REMARK   96  A    between atoms: _225  and  _227
REMARK   97  A    between atoms: _227  and  _228
REMARK   98  A    between atoms: _227  and  _230
REMARK   99  A    between atoms: _230  and  _231
REMARK  100  A    between atoms: _234  and  _236
REMARK  101  A    between atoms: _236  and  _237
REMARK  102  A    between atoms: _236  and  _239
REMARK  103  A    between atoms: _239  and  _240
REMARK  104  A    between atoms: _243  and  _245
REMARK  105  A    between atoms: _245  and  _246
REMARK  106  A    between atoms: _245  and  _248
REMARK  107  A    between atoms: _248  and  _249
REMARK  108  A    between atoms: _249  and  _250
REMARK  109  A    between atoms: _252  and  _254
REMARK  110  A    between atoms: _254  and  _255
REMARK  111  A    between atoms: _254  and  _257
REMARK  112  A    between atoms: _257  and  _258
REMARK  113  A    between atoms: _264  and  _266
REMARK  114  A    between atoms: _266  and  _267
REMARK  115  A    between atoms: _266  and  _269
REMARK  116  A    between atoms: _271  and  _273
REMARK  117  A    between atoms: _273  and  _274
REMARK  118  A    between atoms: _277  and  _279
REMARK  119  A    between atoms: _279  and  _280
REMARK  120  A    between atoms: _282  and  _284
REMARK  121  A    between atoms: _284  and  _285
REMARK  122  A    between atoms: _284  and  _287
REMARK  123  A    between atoms: _287  and  _288
REMARK  124  A    between atoms: _288  and  _289
REMARK  125  A    between atoms: _292  and  _294
REMARK  126  A    between atoms: _294  and  _295
REMARK  127  A    between atoms: _294  and  _297
REMARK  128  A    between atoms: _297  and  _298
REMARK  129  A    between atoms: _301  and  _303
REMARK  130  A    between atoms: _303  and  _304
REMARK  131  A    between atoms: _307  and  _309
REMARK  132  A    between atoms: _309  and  _310
REMARK  133  A    between atoms: _309  and  _312
REMARK  134  A    between atoms: _312  and  _313
REMARK  135  A    between atoms: _313  and  _436
REMARK  136  A    between atoms: _314  and  _316
REMARK  137  A    between atoms: _316  and  _317
REMARK  138  A    between atoms: _316  and  _319
REMARK  139  A    between atoms: _319  and  _320
REMARK  140  A    between atoms: _320  and  _321
REMARK  141  A    between atoms: _326  and  _328
REMARK  142  A    between atoms: _328  and  _329
REMARK  143  A    between atoms: _331  and  _333
REMARK  144  A    between atoms: _333  and  _334
REMARK  145  A    between atoms: _333  and  _336
REMARK  146  A    between atoms: _336  and  _337
REMARK  147  A    between atoms: _340  and  _342
REMARK  148  A    between atoms: _342  and  _343
REMARK  149  A    between atoms: _342  and  _345
REMARK  150  A    between atoms: _345  and  _346
REMARK  151  A    between atoms: _348  and  _350
REMARK  152  A    between atoms: _350  and  _351
REMARK  153  A    between atoms: _353  and  _355
REMARK  154  A    between atoms: _355  and  _356
REMARK  155  A    between atoms: _358  and  _360
REMARK  156  A    between atoms: _360  and  _361
REMARK  157  A    between atoms: _360  and  _363
REMARK  158  A    between atoms: _363  and  _364
REMARK  159  A    between atoms: _369  and  _371
REMARK  160  A    between atoms: _371  and  _372
REMARK  161  A    between atoms: _371  and  _374
REMARK  162  A    between atoms: _374  and  _375
REMARK  163  A    between atoms: _378  and  _380
REMARK  164  A    between atoms: _380  and  _381
REMARK  165  A    between atoms: _380  and  _383
REMARK  166  A    between atoms: _386  and  _388
REMARK  167  A    between atoms: _388  and  _389
REMARK  168  A    between atoms: _388  and  _391
REMARK  169  A    between atoms: _391  and  _392
REMARK  170  A    between atoms: _394  and  _396
REMARK  171  A    between atoms: _396  and  _397
REMARK  172  A    between atoms: _396  and  _399
REMARK  173  A    between atoms: _399  and  _400
REMARK  174  A    between atoms: _410  and  _412
REMARK  175  A    between atoms: _412  and  _413
REMARK  176  A    between atoms: _415  and  _417
REMARK  177  A    between atoms: _417  and  _418
REMARK  178  A    between atoms: _417  and  _420
REMARK  179  A    between atoms: _420  and  _421
REMARK  180  A    between atoms: _421  and  _422
REMARK  181  A    between atoms: _425  and  _427
REMARK  182  A    between atoms: _427  and  _428
REMARK  183  A    between atoms: _430  and  _432
REMARK  184  A    between atoms: _432  and  _433
REMARK  185  A    between atoms: _432  and  _435
REMARK  186  A    between atoms: _435  and  _436
REMARK  187  A    between atoms: _437  and  _439
REMARK  188  A    between atoms: _439  and  _440
REMARK  189  A    between atoms: _443  and  _445
REMARK  190  A    between atoms: _445  and  _446
REMARK  191  A    between atoms: _445  and  _448
REMARK  192  A    between atoms: _448  and  _449
REMARK  193  A    between atoms: _449  and  _450
REMARK  194  A    between atoms: _450  and  _451
REMARK  195  A    between atoms: _460  and  _462
REMARK  196  A    between atoms: _462  and  _463
REMARK  197  A    between atoms: _462  and  _465
REMARK  198  A    between atoms: _465  and  _466
REMARK  199  A    between atoms: _466  and  _467
REMARK  200  A    between atoms: _467  and  _468
REMARK  201  A    between atoms: _468  and  _469
REMARK  202  A    between atoms: _473  and  _475
REMARK  203  A    between atoms: _475  and  _476
REMARK  204  A    between atoms: _475  and  _478
REMARK  205  A    between atoms: _478  and  _479
REMARK  206  A    between atoms: _484  and  _485
REMARK  207  A    between atoms: _487  and  _489
REMARK  208  A    between atoms: _489  and  _490
REMARK  209  A    between atoms: _492  and  _494
REMARK  210  A    between atoms: _494  and  _495
REMARK  211  A    between atoms: _494  and  _497
REMARK  212  A    between atoms: _497  and  _498
REMARK  213  A    between atoms: _501  and  _503
REMARK  214  A    between atoms: _503  and  _504
REMARK  215  A    between atoms: _503  and  _506
REMARK  216  A    between atoms: _506  and  _507
REMARK  217  A    between atoms: _512  and  _513
REMARK  218  A    between atoms: _515  and  _517
REMARK  219  A    between atoms: _517  and  _518
REMARK  220  A    between atoms: _517  and  _520
REMARK  221  A    between atoms: _520  and  _521
REMARK                            x       y       z     vdW  Elec       q    Type
REMARK                         _______ _______ _______ _____ _____    ______ ____
ROOT
ATOM      1  C   ILE A   1       9.079  -7.133  24.774  0.00  0.00    +0.202 C 
ATOM      2  N   VAL A   2      10.235  -7.290  25.400  0.00  0.00    -0.301 N 
ATOM      3  H   VAL A   2      10.402  -6.779  26.291  0.00  0.00    +0.150 HD
ATOM      4  O   ILE A   1       8.801  -7.699  23.706  0.00  0.00    -0.277 OA
ENDROOT
BRANCH   1   5
ATOM      5  CA  ILE A   1       8.096  -6.192  25.459  0.00  0.00    +0.013 C 
BRANCH   5   6
ATOM      6  N   ILE A   1       7.708  -5.098  24.541  0.00  0.00    +0.387 N 
ATOM      7  H1  ILE A   1       7.038  -4.465  25.022  0.00  0.00    -0.089 HD
ATOM      8  H2  ILE A   1       8.555  -4.562  24.264  0.00  0.00    -0.089 HD
ATOM      9  H3  ILE A   1       7.259  -5.501  23.694  0.00  0.00    -0.089 HD
ENDBRANCH   5   6
BRANCH   5  10
ATOM     10  CB  ILE A   1       6.871  -6.999  25.990  0.00  0.00    -0.011 C 
ATOM     11  CG2 ILE A   1       7.332  -8.163  26.847  0.00  0.00    -0.002 C 
BRANCH  10  12
ATOM     12  CG1 ILE A   1       5.928  -6.100  26.816  0.00  0.00    -0.002 C 
ATOM     13  CD1 ILE A   1       6.581  -5.534  28.112  0.00  0.00    -0.000 C 
ENDBRANCH  10  12
ENDBRANCH   5  10
ENDBRANCH   1   5
BRANCH   2  14
ATOM     14  CA  VAL A   2      11.263  -8.145  24.883  0.00  0.00    +0.137 C 
BRANCH  14  15
ATOM     15  CB  VAL A   2      12.632  -7.454  24.989  0.00  0.00    +0.026 C 
ATOM     16  CG2 VAL A   2      13.720  -8.368  24.481  0.00  0.00    +0.002 C 
ATOM     17  CG1 VAL A   2      12.590  -6.124  24.227  0.00  0.00    +0.002 C 
ENDBRANCH  14  15
BRANCH  14  18
ATOM     18  C   VAL A   2      11.226  -9.418  25.694  0.00  0.00    +0.227 C 
ATOM     19  O   VAL A   2      11.310  -9.381  26.915  0.00  0.00    -0.286 OA
ENDBRANCH  14  18
ENDBRANCH   2  14
TORSDOF 7
REMARK  Name = ../refined-set-2016/2vwm/2vwm_pocket.pdb
REMARK  221 active torsions:
REMARK  status: ('A' for Active; 'I' for Inactive)
REMARK    1  A    between atoms: _1  and  _5
REMARK    2  A    between atoms: _5  and  _6
REMARK    3  A    between atoms: _5  and  _8
REMARK    4  A    between atoms: _8  and  _9
REMARK    5  A    between atoms: _12  and  _14
REMARK    6  A    between atoms: _14  and  _15
REMARK    7  A    between atoms: _14  and  _17
REMARK    8  A    between atoms: _20  and  _22
REMARK    9  A    between atoms: _22  and  _23
REMARK   10  A    between atoms: _22  and  _25
REMARK   11  A    between atoms: _25  and  _26
REMARK   12  A    between atoms: _31  and  _33
REMARK   13  A    between atoms: _33  and  _34
REMARK   14  A    between atoms: _33  and  _36
REMARK   15  A    between atoms: _36  and  _37
REMARK   16  A    between atoms: _37  and  _38
REMARK   17  A    between atoms: _43  and  _45
REMARK   18  A    between atoms: _45  and  _46
REMARK   19  A    between atoms: _45  and  _48
REMARK   20  A    between atoms: _48  and  _49
REMARK   21  A    between atoms: _52  and  _54
REMARK   22  A    between atoms: _54  and  _55
REMARK   23  A    between atoms: _54  and  _57
REMARK   24  A    between atoms: _57  and  _58
REMARK   25  A    between atoms: _58  and  _59
REMARK   26  A    between atoms: _59  and  _60
REMARK   27  A    between atoms: _60  and  _61
REMARK   28  A    between atoms: _65  and  _67
REMARK   29  A    between atoms: _67  and  _68
REMARK   30  A    between atoms: _67  and  _70
REMARK   31  A    between atoms: _70  and  _71
REMARK   32  A    between atoms: _71  and  _72
REMARK   33  A    between atoms: _75  and  _77
REMARK   34  A    between atoms: _77  and  _78
REMARK   35  A    between atoms: _77  and  _80
REMARK   36  A    between atoms: _80  and  _81
REMARK   37  A    between atoms: _84  and  _86
REMARK   38  A    between atoms: _86  and  _87
REMARK   39  A    between atoms: _86  and  _89
REMARK   40  A    between atoms: _89  and  _90
REMARK   41  A    between atoms: _95  and  _96
REMARK   42  A    between atoms: _98  and  _100
REMARK   43  A    between atoms: _100  and  _101
REMARK   44  A    between atoms: _100  and  _103
REMARK   45  A    between atoms: _103  and  _104
REMARK   46  A    between atoms: _107  and  _109
REMARK   47  A    between atoms: _109  and  _110
REMARK   48  A    between atoms: _109  and  _112
REMARK   49  A    between atoms: _112  and  _113
REMARK   50  A    between atoms: _116  and  _118
REMARK   51  A    between atoms: _118  and  _119
REMARK   52  A    between atoms: _118  and  _121
REMARK   53  A    between atoms: _124  and  _126
REMARK   54  A    between atoms: _126  and  _127
REMARK   55  A    between atoms: _126  and  _129
REMARK   56  A    between atoms: _129  and  _130
REMARK   57  A    between atoms: _130  and  _131
REMARK   58  A    between atoms: _131  and  _132
REMARK   59  A    between atoms: _141  and  _143
REMARK   60  A    between atoms: _143  and  _144
REMARK   61  A    between atoms: _143  and  _146
REMARK   62  A    between atoms: _146  and  _147
REMARK   63  A    between atoms: _152  and  _154
REMARK   64  A    between atoms: _154  and  _155
REMARK   65  A    between atoms: _154  and  _157
REMARK   66  A    between atoms: _157  and  _158
REMARK   67  A    between atoms: _158  and  _159
REMARK   68  A    between atoms: _162  and  _164
REMARK   69  A    between atoms: _164  and  _165
REMARK   70  A    between atoms: _164  and  _167
REMARK   71  A    between atoms: _167  and  _168
REMARK   72  A    between atoms: _168  and  _169
REMARK   73  A    between atoms: _169  and  _170
REMARK   74  A    between atoms: _170  and  _171
REMARK   75  A    between atoms: _175  and  _177
REMARK   76  A    between atoms: _177  and  _178
REMARK   77  A    between atoms: _180  and  _182
REMARK   78  A    between atoms: _182  and  _183
REMARK   79  A    between atoms: _182  and  _185
REMARK   80  A    between atoms: _188  and  _190
REMARK   81  A    between atoms: _190  and  _191
REMARK   82  A    between atoms: _190  and  _193
REMARK   83  A    between atoms: _193  and  _194
REMARK   84  A    between atoms: _196  and  _198
REMARK   85  A    between atoms: _198  and  _199
REMARK   86  A    between atoms: _198  and  _201
REMARK   87  A    between atoms: _201  and  _202
REMARK   88  A    between atoms: _204  and  _206
REMARK   89  A    between atoms: _206  and  _207
REMARK   90  A    between atoms: _206  and  _209
REMARK   91  A    between atoms: _209  and  _210
REMARK   92  A    between atoms: _216  and  _218
REMARK   93  A    between atoms: _218  and  _219
REMARK   94  A    between atoms: _218  and  _221
REMARK   95  A    between atoms: _221  and  _222
REMARK   96  A    between atoms: _225  and  _227
REMARK   97  A    between atoms: _227  and  _228
REMARK   98  A    between atoms: _227  and  _230
REMARK   99  A    between atoms: _230  and  _231
REMARK  100  A    between atoms: _234  and  _236
REMARK  101  A    between atoms: _236  and  _237
REMARK  102  A    between atoms: _236  and  _239
REMARK  103  A    between atoms: _239  and  _240
REMARK  104  A    between atoms: _243  and  _245
REMARK  105  A    between atoms: _245  and  _246
REMARK  106  A    between atoms: _245  and  _248
REMARK  107  A    between atoms: _248  and  _249
REMARK  108  A    between atoms: _249  and  _250
REMARK  109  A    between atoms: _252  and  _254
REMARK  110  A    between atoms: _254  and  _255
REMARK  111  A    between atoms: _254  and  _257
REMARK  112  A    between atoms: _257  and  _258
REMARK  113  A    between atoms: _264  and  _266
REMARK  114  A    between atoms: _266  and  _267
REMARK  115  A    between atoms: _266  and  _269
REMARK  116  A    between atoms: _271  and  _273
REMARK  117  A    between atoms: _273  and  _274
REMARK  118  A    between atoms: _277  and  _279
REMARK  119  A    between atoms: _279  and  _280
REMARK  120  A    between atoms: _282  and  _284
REMARK  121  A    between atoms: _284  and  _285
REMARK  122  A    between atoms: _284  and  _287
REMARK  123  A    between atoms: _287  and  _288
REMARK  124  A    between atoms: _288  and  _289
REMARK  125  A    between atoms: _292  and  _294
REMARK  126  A    between atoms: _294  and  _295
REMARK  127  A    between atoms: _294  and  _297
REMARK  128  A    between atoms: _297  and  _298
REMARK  129  A    between atoms: _301  and  _303
REMARK  130  A    between atoms: _303  and  _304
REMARK  131  A    between atoms: _307  and  _309
REMARK  132  A    between atoms: _309  and  _310
REMARK  133  A    between atoms: _309  and  _312
REMARK  134  A    between atoms: _312  and  _313
REMARK  135  A    between atoms: _313  and  _436
REMARK  136  A    between atoms: _314  and  _316
REMARK  137  A    between atoms: _316  and  _317
REMARK  138  A    between atoms: _316  and  _319
REMARK  139  A    between atoms: _319  and  _320
REMARK  140  A    between atoms: _320  and  _321
REMARK  141  A    between atoms: _326  and  _328
REMARK  142  A    between atoms: _328  and  _329
REMARK  143  A    between atoms: _331  and  _333
REMARK  144  A    between atoms: _333  and  _334
REMARK  145  A    between atoms: _333  and  _336
REMARK  146  A    between atoms: _336  and  _337
REMARK  147  A    between atoms: _340  and  _342
REMARK  148  A    between atoms: _342  and  _343
REMARK  149  A    between atoms: _342  and  _345
REMARK  150  A    between atoms: _345  and  _346
REMARK  151  A    between atoms: _348  and  _350
REMARK  152  A    between atoms: _350  and  _351
REMARK  153  A    between atoms: _353  and  _355
REMARK  154  A    between atoms: _355  and  _356
REMARK  155  A    between atoms: _358  and  _360
REMARK  156  A    between atoms: _360  and  _361
REMARK  157  A    between atoms: _360  and  _363
REMARK  158  A    between atoms: _363  and  _364
REMARK  159  A    between atoms: _369  and  _371
REMARK  160  A    between atoms: _371  and  _372
REMARK  161  A    between atoms: _371  and  _374
REMARK  162  A    between atoms: _374  and  _375
REMARK  163  A    between atoms: _378  and  _380
REMARK  164  A    between atoms: _380  and  _381
REMARK  165  A    between atoms: _380  and  _383
REMARK  166  A    between atoms: _386  and  _388
REMARK  167  A    between atoms: _388  and  _389
REMARK  168  A    between atoms: _388  and  _391
REMARK  169  A    between atoms: _391  and  _392
REMARK  170  A    between atoms: _394  and  _396
REMARK  171  A    between atoms: _396  and  _397
REMARK  172  A    between atoms: _396  and  _399
REMARK  173  A    between atoms: _399  and  _400
REMARK  174  A    between atoms: _410  and  _412
REMARK  175  A    between atoms: _412  and  _413
REMARK  176  A    between atoms: _415  and  _417
REMARK  177  A    between atoms: _417  and  _418
REMARK  178  A    between atoms: _417  and  _420
REMARK  179  A    between atoms: _420  and  _421
REMARK  180  A    between atoms: _421  and  _422
REMARK  181  A    between atoms: _425  and  _427
REMARK  182  A    between atoms: _427  and  _428
REMARK  183  A    between atoms: _430  and  _432
REMARK  184  A    between atoms: _432  and  _433
REMARK  185  A    between atoms: _432  and  _435
REMARK  186  A    between atoms: _435  and  _436
REMARK  187  A    between atoms: _437  and  _439
REMARK  188  A    between atoms: _439  and  _440
REMARK  189  A    between atoms: _443  and  _445
REMARK  190  A    between atoms: _445  and  _446
REMARK  191  A    between atoms: _445  and  _448
REMARK  192  A    between atoms: _448  and  _449
REMARK  193  A    between atoms: _449  and  _450
REMARK  194  A    between atoms: _450  and  _451
REMARK  195  A    between atoms: _460  and  _462
REMARK  196  A    between atoms: _462  and  _463
REMARK  197  A    between atoms: _462  and  _465
REMARK  198  A    between atoms: _465  and  _466
REMARK  199  A    between atoms: _466  and  _467
REMARK  200  A    between atoms: _467  and  _468
REMARK  201  A    between atoms: _468  and  _469
REMARK  202  A    between atoms: _473  and  _475
REMARK  203  A    between atoms: _475  and  _476
REMARK  204  A    between atoms: _475  and  _478
REMARK  205  A    between atoms: _478  and  _479
REMARK  206  A    between atoms: _484  and  _485
REMARK  207  A    between atoms: _487  and  _489
REMARK  208  A    between atoms: _489  and  _490
REMARK  209  A    between atoms: _492  and  _494
REMARK  210  A    between atoms: _494  and  _495
REMARK  211  A    between atoms: _494  and  _497
REMARK  212  A    between atoms: _497  and  _498
REMARK  213  A    between atoms: _501  and  _503
REMARK  214  A    between atoms: _503  and  _504
REMARK  215  A    between atoms: _503  and  _506
REMARK  216  A    between atoms: _506  and  _507
REMARK  217  A    between atoms: _512  and  _513
REMARK  218  A    between atoms: _515  and  _517
REMARK  219  A    between atoms: _517  and  _518
REMARK  220  A    between atoms: _517  and  _520
REMARK  221  A    between atoms: _520  and  _521
REMARK                            x       y       z     vdW  Elec       q    Type
REMARK                         _______ _______ _______ _____ _____    ______ ____
ROOT
ATOM      1  CB  HIS A   1       8.505  10.922  29.718  0.00  0.00    +0.072 C 
ENDROOT
BRANCH   1   2
ATOM      2  CG  HIS A   1       8.498   9.493  29.255  0.00  0.00    +0.082 A 
ATOM      3  ND1 HIS A   1       8.421   8.425  30.126  0.00  0.00    -0.227 NA
ATOM      4  CE1 HIS A   1       8.415   7.298  29.439  0.00  0.00    +0.199 A 
ATOM      5  NE2 HIS A   1       8.484   7.596  28.153  0.00  0.00    -0.221 NA
ATOM      6  CD2 HIS A   1       8.537   8.960  28.012  0.00  0.00    +0.115 A 
ENDBRANCH   1   2
BRANCH   1   7
ATOM      7  CA  HIS A   1       7.173  11.650  29.499  0.00  0.00    +0.139 C 
BRANCH   7   8
ATOM      8  N   HIS A   1       6.229  11.394  30.593  0.00  0.00    -0.239 NA
ATOM      9  H   HIS A   1       6.371  10.566  31.206  0.00  0.00    +0.142 HD
ENDBRANCH   7   8
BRANCH   7  10
ATOM     10  C   HIS A   1       6.605  11.266  28.134  0.00  0.00    +0.224 C 
ATOM     11  O   HIS A   1       7.156  11.646  27.078  0.00  0.00    -0.287 OA
ENDBRANCH   7  10
ENDBRANCH   1   7
TORSDOF 4
REMARK  Name = ../refined-set-2016/2vwm/2vwm_pocket.pdb
REMARK  221 active torsions:
REMARK  status: ('A' for Active; 'I' for Inactive)
REMARK    1  A    between atoms: _1  and  _5
REMARK    2  A    between atoms: _5  and  _6
REMARK    3  A    between atoms: _5  and  _8
REMARK    4  A    between atoms: _8  and  _9
REMARK    5  A    between atoms: _12  and  _14
REMARK    6  A    between atoms: _14  and  _15
REMARK    7  A    between atoms: _14  and  _17
REMARK    8  A    between atoms: _20  and  _22
REMARK    9  A    between atoms: _22  and  _23
REMARK   10  A    between atoms: _22  and  _25
REMARK   11  A    between atoms: _25  and  _26
REMARK   12  A    between atoms: _31  and  _33
REMARK   13  A    between atoms: _33  and  _34
REMARK   14  A    between atoms: _33  and  _36
REMARK   15  A    between atoms: _36  and  _37
REMARK   16  A    between atoms: _37  and  _38
REMARK   17  A    between atoms: _43  and  _45
REMARK   18  A    between atoms: _45  and  _46
REMARK   19  A    between atoms: _45  and  _48
REMARK   20  A    between atoms: _48  and  _49
REMARK   21  A    between atoms: _52  and  _54
REMARK   22  A    between atoms: _54  and  _55
REMARK   23  A    between atoms: _54  and  _57
REMARK   24  A    between atoms: _57  and  _58
REMARK   25  A    between atoms: _58  and  _59
REMARK   26  A    between atoms: _59  and  _60
REMARK   27  A    between atoms: _60  and  _61
REMARK   28  A    between atoms: _65  and  _67
REMARK   29  A    between atoms: _67  and  _68
REMARK   30  A    between atoms: _67  and  _70
REMARK   31  A    between atoms: _70  and  _71
REMARK   32  A    between atoms: _71  and  _72
REMARK   33  A    between atoms: _75  and  _77
REMARK   34  A    between atoms: _77  and  _78
REMARK   35  A    between atoms: _77  and  _80
REMARK   36  A    between atoms: _80  and  _81
REMARK   37  A    between atoms: _84  and  _86
REMARK   38  A    between atoms: _86  and  _87
REMARK   39  A    between atoms: _86  and  _89
REMARK   40  A    between atoms: _89  and  _90
REMARK   41  A    between atoms: _95  and  _96
REMARK   42  A    between atoms: _98  and  _100
REMARK   43  A    between atoms: _100  and  _101
REMARK   44  A    between atoms: _100  and  _103
REMARK   45  A    between atoms: _103  and  _104
REMARK   46  A    between atoms: _107  and  _109
REMARK   47  A    between atoms: _109  and  _110
REMARK   48  A    between atoms: _109  and  _112
REMARK   49  A    between atoms: _112  and  _113
REMARK   50  A    between atoms: _116  and  _118
REMARK   51  A    between atoms: _118  and  _119
REMARK   52  A    between atoms: _118  and  _121
REMARK   53  A    between atoms: _124  and  _126
REMARK   54  A    between atoms: _126  and  _127
REMARK   55  A    between atoms: _126  and  _129
REMARK   56  A    between atoms: _129  and  _130
REMARK   57  A    between atoms: _130  and  _131
REMARK   58  A    between atoms: _131  and  _132
REMARK   59  A    between atoms: _141  and  _143
REMARK   60  A    between atoms: _143  and  _144
REMARK   61  A    between atoms: _143  and  _146
REMARK   62  A    between atoms: _146  and  _147
REMARK   63  A    between atoms: _152  and  _154
REMARK   64  A    between atoms: _154  and  _155
REMARK   65  A    between atoms: _154  and  _157
REMARK   66  A    between atoms: _157  and  _158
REMARK   67  A    between atoms: _158  and  _159
REMARK   68  A    between atoms: _162  and  _164
REMARK   69  A    between atoms: _164  and  _165
REMARK   70  A    between atoms: _164  and  _167
REMARK   71  A    between atoms: _167  and  _168
REMARK   72  A    between atoms: _168  and  _169
REMARK   73  A    between atoms: _169  and  _170
REMARK   74  A    between atoms: _170  and  _171
REMARK   75  A    between atoms: _175  and  _177
REMARK   76  A    between atoms: _177  and  _178
REMARK   77  A    between atoms: _180  and  _182
REMARK   78  A    between atoms: _182  and  _183
REMARK   79  A    between atoms: _182  and  _185
REMARK   80  A    between atoms: _188  and  _190
REMARK   81  A    between atoms: _190  and  _191
REMARK   82  A    between atoms: _190  and  _193
REMARK   83  A    between atoms: _193  and  _194
REMARK   84  A    between atoms: _196  and  _198
REMARK   85  A    between atoms: _198  and  _199
REMARK   86  A    between atoms: _198  and  _201
REMARK   87  A    between atoms: _201  and  _202
REMARK   88  A    between atoms: _204  and  _206
REMARK   89  A    between atoms: _206  and  _207
REMARK   90  A    between atoms: _206  and  _209
REMARK   91  A    between atoms: _209  and  _210
REMARK   92  A    between atoms: _216  and  _218
REMARK   93  A    between atoms: _218  and  _219
REMARK   94  A    between atoms: _218  and  _221
REMARK   95  A    between atoms: _221  and  _222
REMARK   96  A    between atoms: _225  and  _227
REMARK   97  A    between atoms: _227  and  _228
REMARK   98  A    between atoms: _227  and  _230
REMARK   99  A    between atoms: _230  and  _231
REMARK  100  A    between atoms: _234  and  _236
REMARK  101  A    between atoms: _236  and  _237
REMARK  102  A    between atoms: _236  and  _239
REMARK  103  A    between atoms: _239  and  _240
REMARK  104  A    between atoms: _243  and  _245
REMARK  105  A    between atoms: _245  and  _246
REMARK  106  A    between atoms: _245  and  _248
REMARK  107  A    between atoms: _248  and  _249
REMARK  108  A    between atoms: _249  and  _250
REMARK  109  A    between atoms: _252  and  _254
REMARK  110  A    between atoms: _254  and  _255
REMARK  111  A    between atoms: _254  and  _257
REMARK  112  A    between atoms: _257  and  _258
REMARK  113  A    between atoms: _264  and  _266
REMARK  114  A    between atoms: _266  and  _267
REMARK  115  A    between atoms: _266  and  _269
REMARK  116  A    between atoms: _271  and  _273
REMARK  117  A    between atoms: _273  and  _274
REMARK  118  A    between atoms: _277  and  _279
REMARK  119  A    between atoms: _279  and  _280
REMARK  120  A    between atoms: _282  and  _284
REMARK  121  A    between atoms: _284  and  _285
REMARK  122  A    between atoms: _284  and  _287
REMARK  123  A    between atoms: _287  and  _288
REMARK  124  A    between atoms: _288  and  _289
REMARK  125  A    between atoms: _292  and  _294
REMARK  126  A    between atoms: _294  and  _295
REMARK  127  A    between atoms: _294  and  _297
REMARK  128  A    between atoms: _297  and  _298
REMARK  129  A    between atoms: _301  and  _303
REMARK  130  A    between atoms: _303  and  _304
REMARK  131  A    between atoms: _307  and  _309
REMARK  132  A    between atoms: _309  and  _310
REMARK  133  A    between atoms: _309  and  _312
REMARK  134  A    between atoms: _312  and  _313
REMARK  135  A    between atoms: _313  and  _436
REMARK  136  A    between atoms: _314  and  _316
REMARK  137  A    between atoms: _316  and  _317
REMARK  138  A    between atoms: _316  and  _319
REMARK  139  A    between atoms: _319  and  _320
REMARK  140  A    between atoms: _320  and  _321
REMARK  141  A    between atoms: _326  and  _328
REMARK  142  A    between atoms: _328  and  _329
REMARK  143  A    between atoms: _331  and  _333
REMARK  144  A    between atoms: _333  and  _334
REMARK  145  A    between atoms: _333  and  _336
REMARK  146  A    between atoms: _336  and  _337
REMARK  147  A    between atoms: _340  and  _342
REMARK  148  A    between atoms: _342  and  _343
REMARK  149  A    between atoms: _342  and  _345
REMARK  150  A    between atoms: _345  and  _346
REMARK  151  A    between atoms: _348  and  _350
REMARK  152  A    between atoms: _350  and  _351
REMARK  153  A    between atoms: _353  and  _355
REMARK  154  A    between atoms: _355  and  _356
REMARK  155  A    between atoms: _358  and  _360
REMARK  156  A    between atoms: _360  and  _361
REMARK  157  A    between atoms: _360  and  _363
REMARK  158  A    between atoms: _363  and  _364
REMARK  159  A    between atoms: _369  and  _371
REMARK  160  A    between atoms: _371  and  _372
REMARK  161  A    between atoms: _371  and  _374
REMARK  162  A    between atoms: _374  and  _375
REMARK  163  A    between atoms: _378  and  _380
REMARK  164  A    between atoms: _380  and  _381
REMARK  165  A    between atoms: _380  and  _383
REMARK  166  A    between atoms: _386  and  _388
REMARK  167  A    between atoms: _388  and  _389
REMARK  168  A    between atoms: _388  and  _391
REMARK  169  A    between atoms: _391  and  _392
REMARK  170  A    between atoms: _394  and  _396
REMARK  171  A    between atoms: _396  and  _397
REMARK  172  A    between atoms: _396  and  _399
REMARK  173  A    between atoms: _399  and  _400
REMARK  174  A    between atoms: _410  and  _412
REMARK  175  A    between atoms: _412  and  _413
REMARK  176  A    between atoms: _415  and  _417
REMARK  177  A    between atoms: _417  and  _418
REMARK  178  A    between atoms: _417  and  _420
REMARK  179  A    between atoms: _420  and  _421
REMARK  180  A    between atoms: _421  and  _422
REMARK  181  A    between atoms: _425  and  _427
REMARK  182  A    between atoms: _427  and  _428
REMARK  183  A    between atoms: _430  and  _432
REMARK  184  A    between atoms: _432  and  _433
REMARK  185  A    between atoms: _432  and  _435
REMARK  186  A    between atoms: _435  and  _436
REMARK  187  A    between atoms: _437  and  _439
REMARK  188  A    between atoms: _439  and  _440
REMARK  189  A    between atoms: _443  and  _445
REMARK  190  A    between atoms: _445  and  _446
REMARK  191  A    between atoms: _445  and  _448
REMARK  192  A    between atoms: _448  and  _449
REMARK  193  A    between atoms: _449  and  _450
REMARK  194  A    between atoms: _450  and  _451
REMARK  195  A    between atoms: _460  and  _462
REMARK  196  A    between atoms: _462  and  _463
REMARK  197  A    between atoms: _462  and  _465
REMARK  198  A    between atoms: _465  and  _466
REMARK  199  A    between atoms: _466  and  _467
REMARK  200  A    between atoms: _467  and  _468
REMARK  201  A    between atoms: _468  and  _469
REMARK  202  A    between atoms: _473  and  _475
REMARK  203  A    between atoms: _475  and  _476
REMARK  204  A    between atoms: _475  and  _478
REMARK  205  A    between atoms: _478  and  _479
REMARK  206  A    between atoms: _484  and  _485
REMARK  207  A    between atoms: _487  and  _489
REMARK  208  A    between atoms: _489  and  _490
REMARK  209  A    between atoms: _492  and  _494
REMARK  210  A    between atoms: _494  and  _495
REMARK  211  A    between atoms: _494  and  _497
REMARK  212  A    between atoms: _497  and  _498
REMARK  213  A    between atoms: _501  and  _503
REMARK  214  A    between atoms: _503  and  _504
REMARK  215  A    between atoms: _503  and  _506
REMARK  216  A    between atoms: _506  and  _507
REMARK  217  A    between atoms: _512  and  _513
REMARK  218  A    between atoms: _515  and  _517
REMARK  219  A    between atoms: _517  and  _518
REMARK  220  A    between atoms: _517  and  _520
REMARK  221  A    between atoms: _520  and  _521
REMARK                            x       y       z     vdW  Elec       q    Type
REMARK                         _______ _______ _______ _____ _____    ______ ____
ROOT
ATOM      1  CB  GLN A   1       6.238  10.896  22.388  0.00  0.00    +0.035 C 
ENDROOT
BRANCH   1   2
ATOM      2  CA  GLN A   1       5.882  12.338  22.038  0.00  0.00    +0.134 C 
BRANCH   2   3
ATOM      3  N   GLN A   1       5.662  13.109  23.252  0.00  0.00    -0.239 NA
ATOM      4  H   GLN A   1       4.903  12.822  23.902  0.00  0.00    +0.142 HD
ENDBRANCH   2   3
BRANCH   2   5
ATOM      5  C   GLN A   1       4.619  12.378  21.188  0.00  0.00    +0.224 C 
ATOM      6  O   GLN A   1       4.413  11.531  20.326  0.00  0.00    -0.287 OA
ENDBRANCH   2   5
ENDBRANCH   1   2
BRANCH   1   7
ATOM      7  CG  GLN A   1       7.173  10.785  23.584  0.00  0.00    +0.087 C 
BRANCH   7   8
ATOM      8  CD  GLN A   1       7.429   9.357  23.970  0.00  0.00    +0.219 C 
ATOM      9  OE1 GLN A   1       8.386   9.063  24.679  0.00  0.00    -0.275 OA
ATOM     10  NE2 GLN A   1       6.571   8.444  23.493  0.00  0.00    -0.329 N 
ATOM     11 HE21 GLN A   1       6.703   7.438  23.721  0.00  0.00    +0.145 HD
ATOM     12 HE22 GLN A   1       5.774   8.742  22.895  0.00  0.00    +0.145 HD
ENDBRANCH   7   8
ENDBRANCH   1   7
TORSDOF 5
REMARK  Name = ../refined-set-2016/2vwm/2vwm_pocket.pdb
REMARK  221 active torsions:
REMARK  status: ('A' for Active; 'I' for Inactive)
REMARK    1  A    between atoms: _1  and  _5
REMARK    2  A    between atoms: _5  and  _6
REMARK    3  A    between atoms: _5  and  _8
REMARK    4  A    between atoms: _8  and  _9
REMARK    5  A    between atoms: _12  and  _14
REMARK    6  A    between atoms: _14  and  _15
REMARK    7  A    between atoms: _14  and  _17
REMARK    8  A    between atoms: _20  and  _22
REMARK    9  A    between atoms: _22  and  _23
REMARK   10  A    between atoms: _22  and  _25
REMARK   11  A    between atoms: _25  and  _26
REMARK   12  A    between atoms: _31  and  _33
REMARK   13  A    between atoms: _33  and  _34
REMARK   14  A    between atoms: _33  and  _36
REMARK   15  A    between atoms: _36  and  _37
REMARK   16  A    between atoms: _37  and  _38
REMARK   17  A    between atoms: _43  and  _45
REMARK   18  A    between atoms: _45  and  _46
REMARK   19  A    between atoms: _45  and  _48
REMARK   20  A    between atoms: _48  and  _49
REMARK   21  A    between atoms: _52  and  _54
REMARK   22  A    between atoms: _54  and  _55
REMARK   23  A    between atoms: _54  and  _57
REMARK   24  A    between atoms: _57  and  _58
REMARK   25  A    between atoms: _58  and  _59
REMARK   26  A    between atoms: _59  and  _60
REMARK   27  A    between atoms: _60  and  _61
REMARK   28  A    between atoms: _65  and  _67
REMARK   29  A    between atoms: _67  and  _68
REMARK   30  A    between atoms: _67  and  _70
REMARK   31  A    between atoms: _70  and  _71
REMARK   32  A    between atoms: _71  and  _72
REMARK   33  A    between atoms: _75  and  _77
REMARK   34  A    between atoms: _77  and  _78
REMARK   35  A    between atoms: _77  and  _80
REMARK   36  A    between atoms: _80  and  _81
REMARK   37  A    between atoms: _84  and  _86
REMARK   38  A    between atoms: _86  and  _87
REMARK   39  A    between atoms: _86  and  _89
REMARK   40  A    between atoms: _89  and  _90
REMARK   41  A    between atoms: _95  and  _96
REMARK   42  A    between atoms: _98  and  _100
REMARK   43  A    between atoms: _100  and  _101
REMARK   44  A    between atoms: _100  and  _103
REMARK   45  A    between atoms: _103  and  _104
REMARK   46  A    between atoms: _107  and  _109
REMARK   47  A    between atoms: _109  and  _110
REMARK   48  A    between atoms: _109  and  _112
REMARK   49  A    between atoms: _112  and  _113
REMARK   50  A    between atoms: _116  and  _118
REMARK   51  A    between atoms: _118  and  _119
REMARK   52  A    between atoms: _118  and  _121
REMARK   53  A    between atoms: _124  and  _126
REMARK   54  A    between atoms: _126  and  _127
REMARK   55  A    between atoms: _126  and  _129
REMARK   56  A    between atoms: _129  and  _130
REMARK   57  A    between atoms: _130  and  _131
REMARK   58  A    between atoms: _131  and  _132
REMARK   59  A    between atoms: _141  and  _143
REMARK   60  A    between atoms: _143  and  _144
REMARK   61  A    between atoms: _143  and  _146
REMARK   62  A    between atoms: _146  and  _147
REMARK   63  A    between atoms: _152  and  _154
REMARK   64  A    between atoms: _154  and  _155
REMARK   65  A    between atoms: _154  and  _157
REMARK   66  A    between atoms: _157  and  _158
REMARK   67  A    between atoms: _158  and  _159
REMARK   68  A    between atoms: _162  and  _164
REMARK   69  A    between atoms: _164  and  _165
REMARK   70  A    between atoms: _164  and  _167
REMARK   71  A    between atoms: _167  and  _168
REMARK   72  A    between atoms: _168  and  _169
REMARK   73  A    between atoms: _169  and  _170
REMARK   74  A    between atoms: _170  and  _171
REMARK   75  A    between atoms: _175  and  _177
REMARK   76  A    between atoms: _177  and  _178
REMARK   77  A    between atoms: _180  and  _182
REMARK   78  A    between atoms: _182  and  _183
REMARK   79  A    between atoms: _182  and  _185
REMARK   80  A    between atoms: _188  and  _190
REMARK   81  A    between atoms: _190  and  _191
REMARK   82  A    between atoms: _190  and  _193
REMARK   83  A    between atoms: _193  and  _194
REMARK   84  A    between atoms: _196  and  _198
REMARK   85  A    between atoms: _198  and  _199
REMARK   86  A    between atoms: _198  and  _201
REMARK   87  A    between atoms: _201  and  _202
REMARK   88  A    between atoms: _204  and  _206
REMARK   89  A    between atoms: _206  and  _207
REMARK   90  A    between atoms: _206  and  _209
REMARK   91  A    between atoms: _209  and  _210
REMARK   92  A    between atoms: _216  and  _218
REMARK   93  A    between atoms: _218  and  _219
REMARK   94  A    between atoms: _218  and  _221
REMARK   95  A    between atoms: _221  and  _222
REMARK   96  A    between atoms: _225  and  _227
REMARK   97  A    between atoms: _227  and  _228
REMARK   98  A    between atoms: _227  and  _230
REMARK   99  A    between atoms: _230  and  _231
REMARK  100  A    between atoms: _234  and  _236
REMARK  101  A    between atoms: _236  and  _237
REMARK  102  A    between atoms: _236  and  _239
REMARK  103  A    between atoms: _239  and  _240
REMARK  104  A    between atoms: _243  and  _245
REMARK  105  A    between atoms: _245  and  _246
REMARK  106  A    between atoms: _245  and  _248
REMARK  107  A    between atoms: _248  and  _249
REMARK  108  A    between atoms: _249  and  _250
REMARK  109  A    between atoms: _252  and  _254
REMARK  110  A    between atoms: _254  and  _255
REMARK  111  A    between atoms: _254  and  _257
REMARK  112  A    between atoms: _257  and  _258
REMARK  113  A    between atoms: _264  and  _266
REMARK  114  A    between atoms: _266  and  _267
REMARK  115  A    between atoms: _266  and  _269
REMARK  116  A    between atoms: _271  and  _273
REMARK  117  A    between atoms: _273  and  _274
REMARK  118  A    between atoms: _277  and  _279
REMARK  119  A    between atoms: _279  and  _280
REMARK  120  A    between atoms: _282  and  _284
REMARK  121  A    between atoms: _284  and  _285
REMARK  122  A    between atoms: _284  and  _287
REMARK  123  A    between atoms: _287  and  _288
REMARK  124  A    between atoms: _288  and  _289
REMARK  125  A    between atoms: _292  and  _294
REMARK  126  A    between atoms: _294  and  _295
REMARK  127  A    between atoms: _294  and  _297
REMARK  128  A    between atoms: _297  and  _298
REMARK  129  A    between atoms: _301  and  _303
REMARK  130  A    between atoms: _303  and  _304
REMARK  131  A    between atoms: _307  and  _309
REMARK  132  A    between atoms: _309  and  _310
REMARK  133  A    between atoms: _309  and  _312
REMARK  134  A    between atoms: _312  and  _313
REMARK  135  A    between atoms: _313  and  _436
REMARK  136  A    between atoms: _314  and  _316
REMARK  137  A    between atoms: _316  and  _317
REMARK  138  A    between atoms: _316  and  _319
REMARK  139  A    between atoms: _319  and  _320
REMARK  140  A    between atoms: _320  and  _321
REMARK  141  A    between atoms: _326  and  _328
REMARK  142  A    between atoms: _328  and  _329
REMARK  143  A    between atoms: _331  and  _333
REMARK  144  A    between atoms: _333  and  _334
REMARK  145  A    between atoms: _333  and  _336
REMARK  146  A    between atoms: _336  and  _337
REMARK  147  A    between atoms: _340  and  _342
REMARK  148  A    between atoms: _342  and  _343
REMARK  149  A    between atoms: _342  and  _345
REMARK  150  A    between atoms: _345  and  _346
REMARK  151  A    between atoms: _348  and  _350
REMARK  152  A    between atoms: _350  and  _351
REMARK  153  A    between atoms: _353  and  _355
REMARK  154  A    between atoms: _355  and  _356
REMARK  155  A    between atoms: _358  and  _360
REMARK  156  A    between atoms: _360  and  _361
REMARK  157  A    between atoms: _360  and  _363
REMARK  158  A    between atoms: _363  and  _364
REMARK  159  A    between atoms: _369  and  _371
REMARK  160  A    between atoms: _371  and  _372
REMARK  161  A    between atoms: _371  and  _374
REMARK  162  A    between atoms: _374  and  _375
REMARK  163  A    between atoms: _378  and  _380
REMARK  164  A    between atoms: _380  and  _381
REMARK  165  A    between atoms: _380  and  _383
REMARK  166  A    between atoms: _386  and  _388
REMARK  167  A    between atoms: _388  and  _389
REMARK  168  A    between atoms: _388  and  _391
REMARK  169  A    between atoms: _391  and  _392
REMARK  170  A    between atoms: _394  and  _396
REMARK  171  A    between atoms: _396  and  _397
REMARK  172  A    between atoms: _396  and  _399
REMARK  173  A    between atoms: _399  and  _400
REMARK  174  A    between atoms: _410  and  _412
REMARK  175  A    between atoms: _412  and  _413
REMARK  176  A    between atoms: _415  and  _417
REMARK  177  A    between atoms: _417  and  _418
REMARK  178  A    between atoms: _417  and  _420
REMARK  179  A    between atoms: _420  and  _421
REMARK  180  A    between atoms: _421  and  _422
REMARK  181  A    between atoms: _425  and  _427
REMARK  182  A    between atoms: _427  and  _428
REMARK  183  A    between atoms: _430  and  _432
REMARK  184  A    between atoms: _432  and  _433
REMARK  185  A    between atoms: _432  and  _435
REMARK  186  A    between atoms: _435  and  _436
REMARK  187  A    between atoms: _437  and  _439
REMARK  188  A    between atoms: _439  and  _440
REMARK  189  A    between atoms: _443  and  _445
REMARK  190  A    between atoms: _445  and  _446
REMARK  191  A    between atoms: _445  and  _448
REMARK  192  A    between atoms: _448  and  _449
REMARK  193  A    between atoms: _449  and  _450
REMARK  194  A    between atoms: _450  and  _451
REMARK  195  A    between atoms: _460  and  _462
REMARK  196  A    between atoms: _462  and  _463
REMARK  197  A    between atoms: _462  and  _465
REMARK  198  A    between atoms: _465  and  _466
REMARK  199  A    between atoms: _466  and  _467
REMARK  200  A    between atoms: _467  and  _468
REMARK  201  A    between atoms: _468  and  _469
REMARK  202  A    between atoms: _473  and  _475
REMARK  203  A    between atoms: _475  and  _476
REMARK  204  A    between atoms: _475  and  _478
REMARK  205  A    between atoms: _478  and  _479
REMARK  206  A    between atoms: _484  and  _485
REMARK  207  A    between atoms: _487  and  _489
REMARK  208  A    between atoms: _489  and  _490
REMARK  209  A    between atoms: _492  and  _494
REMARK  210  A    between atoms: _494  and  _495
REMARK  211  A    between atoms: _494  and  _497
REMARK  212  A    between atoms: _497  and  _498
REMARK  213  A    between atoms: _501  and  _503
REMARK  214  A    between atoms: _503  and  _504
REMARK  215  A    between atoms: _503  and  _506
REMARK  216  A    between atoms: _506  and  _507
REMARK  217  A    between atoms: _512  and  _513
REMARK  218  A    between atoms: _515  and  _517
REMARK  219  A    between atoms: _517  and  _518
REMARK  220  A    between atoms: _517  and  _520
REMARK  221  A    between atoms: _520  and  _521
REMARK                            x       y       z     vdW  Elec       q    Type
REMARK                         _______ _______ _______ _____ _____    ______ ____
ROOT
ATOM      1  C   GLU A   3      16.559  15.119  33.615  0.00  0.00    +0.241 C 
ATOM      2  N   THR A   4      15.558  14.798  34.434  0.00  0.00    -0.295 N 
ATOM      3  H   THR A   4      14.644  15.283  34.330  0.00  0.00    +0.150 HD
ATOM      4  O   GLU A   3      17.633  14.510  33.573  0.00  0.00    -0.273 OA
ENDROOT
BRANCH   2   5
ATOM      5  CA  THR A   4      15.710  13.780  35.476  0.00  0.00    +0.176 C 
BRANCH   5   6
ATOM      6  C   THR A   4      14.880  12.504  35.296  0.00  0.00    +0.243 C 
ATOM      7  O   THR A   4      15.257  11.447  35.808  0.00  0.00    -0.273 OA
ATOM      8  N   TYR A   5      13.771  12.618  34.564  0.00  0.00    -0.297 N 
ATOM      9  H   TYR A   5      13.630  13.495  34.023  0.00  0.00    +0.150 HD
BRANCH   8  10
ATOM     10  CA  TYR A   5      12.741  11.583  34.477  0.00  0.00    +0.153 C 
BRANCH  10  11
ATOM     11  C   TYR A   5      12.142  11.302  35.831  0.00  0.00    +0.241 C 
ATOM     12  N   ASP A   6      12.419  12.164  36.805  0.00  0.00    -0.298 N 
ATOM     13  H   ASP A   6      13.088  12.942  36.636  0.00  0.00    +0.150 HD
ATOM     14  O   TYR A   5      11.438  10.320  35.993  0.00  0.00    -0.273 OA
BRANCH  12  15
ATOM     15  CA  ASP A   6      11.789  12.019  38.103  0.00  0.00    +0.148 C 
BRANCH  15  16
ATOM     16  C   ASP A   6      10.294  12.333  37.978  0.00  0.00    +0.227 C 
ATOM     17  O   ASP A   6       9.892  13.004  37.040  0.00  0.00    -0.286 OA
ENDBRANCH  15  16
BRANCH  15  18
ATOM     18  CB  ASP A   6      12.455  12.911  39.144  0.00  0.00    +0.142 C 
BRANCH  18  19
ATOM     19  CG  ASP A   6      12.268  12.396  40.540  0.00  0.00    +0.367 C 
ATOM     20  OD2 ASP A   6      12.724  13.087  41.478  0.00  0.00    -0.246 OA
ATOM     21  OD1 ASP A   6      11.658  11.305  40.701  0.00  0.00    -0.246 OA
ENDBRANCH  18  19
ENDBRANCH  15  18
ENDBRANCH  12  15
ENDBRANCH  10  11
BRANCH  10  22
ATOM     22  CB  TYR A   5      13.265  10.294  33.837  0.00  0.00    +0.055 C 
BRANCH  22  23
ATOM     23  CG  TYR A   5      13.005  10.233  32.365  0.00  0.00    -0.020 A 
ATOM     24  CD2 TYR A   5      12.228   9.213  31.811  0.00  0.00    -0.001 A 
ATOM     25  CE2 TYR A   5      11.981   9.171  30.435  0.00  0.00    +0.036 A 
ATOM     26  CZ  TYR A   5      12.530  10.152  29.608  0.00  0.00    +0.134 A 
ATOM     27  CE1 TYR A   5      13.307  11.168  30.139  0.00  0.00    +0.036 A 
ATOM     28  CD1 TYR A   5      13.541  11.209  31.504  0.00  0.00    -0.001 A 
BRANCH  26  29
ATOM     29  OH  TYR A   5      12.303  10.130  28.241  0.00  0.00    -0.506 OA
ATOM     30  HH  TYR A   5      12.651   9.283  27.863  0.00  0.00    +0.292 HD
ENDBRANCH  26  29
ENDBRANCH  22  23
ENDBRANCH  10  22
ENDBRANCH   8  10
ENDBRANCH   5   6
BRANCH   5  31
ATOM     31  CB  THR A   4      15.394  14.354  36.862  0.00  0.00    +0.137 C 
ATOM     32  CG2 THR A   4      16.312  15.526  37.193  0.00  0.00    +0.034 C 
BRANCH  31  33
ATOM     33  OG1 THR A   4      14.034  14.797  36.903  0.00  0.00    -0.382 OA
ATOM     34  HG1 THR A   4      13.835  15.167  37.800  0.00  0.00    +0.210 HD
ENDBRANCH  31  33
ENDBRANCH   5  31
ENDBRANCH   2   5
BRANCH   1  35
ATOM     35  CA  GLU A   3      16.309  16.284  32.670  0.00  0.00    +0.149 C 
BRANCH  35  37
ATOM     36  C   LYS A   2      14.505  15.091  31.520  0.00  0.00    +0.241 C 
ATOM     37  N   GLU A   3      14.962  16.192  32.113  0.00  0.00    -0.297 N 
ATOM     38  H   GLU A   3      14.335  17.019  32.182  0.00  0.00    +0.150 HD
ATOM     39  O   LYS A   2      15.193  14.089  31.332  0.00  0.00    -0.273 OA
BRANCH  36  40
ATOM     40  CA  LYS A   2      13.050  15.151  31.066  0.00  0.00    +0.149 C 
BRANCH  40  43
ATOM     41  C   THR A   1      12.004  15.779  33.197  0.00  0.00    +0.241 C 
ATOM     42  O   THR A   1      12.471  14.810  33.794  0.00  0.00    -0.274 OA
ATOM     43  N   LYS A   2      12.247  16.030  31.914  0.00  0.00    -0.297 N 
ATOM     44  H   LYS A   2      11.847  16.893  31.494  0.00  0.00    +0.150 HD
BRANCH  41  45
ATOM     45  CA  THR A   1      11.121  16.782  33.918  0.00  0.00    +0.172 C 
BRANCH  45  46
ATOM     46  N   THR A   1      10.211  16.127  34.853  0.00  0.00    -0.236 NA
ATOM     47  H   THR A   1      10.442  15.173  35.195  0.00  0.00    +0.142 HD
ENDBRANCH  45  46
BRANCH  45  48
ATOM     48  CB  THR A   1      12.042  17.847  34.585  0.00  0.00    +0.135 C 
ATOM     49  CG2 THR A   1      12.656  17.319  35.849  0.00  0.00    +0.034 C 
BRANCH  48  50
ATOM     50  OG1 THR A   1      13.112  18.158  33.680  0.00  0.00    -0.383 OA
ATOM     51  HG1 THR A   1      13.705  18.835  34.092  0.00  0.00    +0.210 HD
ENDBRANCH  48  50
ENDBRANCH  45  48
ENDBRANCH  41  45
ENDBRANCH  40  43
BRANCH  40  52
ATOM     52  CB  LYS A   2      12.976  15.628  29.605  0.00  0.00    +0.029 C 
BRANCH  52  53
ATOM     53  CG  LYS A   2      11.675  15.267  28.913  0.00  0.00    +0.000 C 
BRANCH  53  54
ATOM     54  CD  LYS A   2      11.026  16.476  28.211  0.00  0.00    -0.024 C 
BRANCH  54  55
ATOM     55  CE  LYS A   2      10.597  17.546  29.217  0.00  0.00    -0.086 C 
BRANCH  55  56
ATOM     56  NZ  LYS A   2       9.681  18.536  28.611  0.00  0.00    +0.380 N 
ATOM     57  HZ1 LYS A   2       9.415  19.243  29.326  0.00  0.00    -0.089 HD
ATOM     58  HZ2 LYS A   2       8.828  18.051  28.266  0.00  0.00    -0.089 HD
ATOM     59  HZ3 LYS A   2      10.159  19.008  27.817  0.00  0.00    -0.089 HD
ENDBRANCH  55  56
ENDBRANCH  54  55
ENDBRANCH  53  54
ENDBRANCH  52  53
ENDBRANCH  40  52
ENDBRANCH  36  40
ENDBRANCH  35  37
BRANCH  35  60
ATOM     60  CB  GLU A   3      16.479  17.616  33.419  0.00  0.00    +0.041 C 
BRANCH  60  61
ATOM     61  CG  GLU A   3      17.540  17.597  34.506  0.00  0.00    +0.116 C 
BRANCH  61  62
ATOM     62  CD  GLU A   3      17.263  18.589  35.623  0.00  0.00    +0.365 C 
ATOM     63  OE2 GLU A   3      18.203  18.888  36.389  0.00  0.00    -0.246 OA
ATOM     64  OE1 GLU A   3      16.102  19.046  35.751  0.00  0.00    -0.246 OA
ENDBRANCH  61  62
ENDBRANCH  60  61
ENDBRANCH  35  60
ENDBRANCH   1  35
TORSDOF 29
REMARK  Name = ../refined-set-2016/2vwm/2vwm_pocket.pdb
REMARK  221 active torsions:
REMARK  status: ('A' for Active; 'I' for Inactive)
REMARK    1  A    between atoms: _1  and  _5
REMARK    2  A    between atoms: _5  and  _6
REMARK    3  A    between atoms: _5  and  _8
REMARK    4  A    between atoms: _8  and  _9
REMARK    5  A    between atoms: _12  and  _14
REMARK    6  A    between atoms: _14  and  _15
REMARK    7  A    between atoms: _14  and  _17
REMARK    8  A    between atoms: _20  and  _22
REMARK    9  A    between atoms: _22  and  _23
REMARK   10  A    between atoms: _22  and  _25
REMARK   11  A    between atoms: _25  and  _26
REMARK   12  A    between atoms: _31  and  _33
REMARK   13  A    between atoms: _33  and  _34
REMARK   14  A    between atoms: _33  and  _36
REMARK   15  A    between atoms: _36  and  _37
REMARK   16  A    between atoms: _37  and  _38
REMARK   17  A    between atoms: _43  and  _45
REMARK   18  A    between atoms: _45  and  _46
REMARK   19  A    between atoms: _45  and  _48
REMARK   20  A    between atoms: _48  and  _49
REMARK   21  A    between atoms: _52  and  _54
REMARK   22  A    between atoms: _54  and  _55
REMARK   23  A    between atoms: _54  and  _57
REMARK   24  A    between atoms: _57  and  _58
REMARK   25  A    between atoms: _58  and  _59
REMARK   26  A    between atoms: _59  and  _60
REMARK   27  A    between atoms: _60  and  _61
REMARK   28  A    between atoms: _65  and  _67
REMARK   29  A    between atoms: _67  and  _68
REMARK   30  A    between atoms: _67  and  _70
REMARK   31  A    between atoms: _70  and  _71
REMARK   32  A    between atoms: _71  and  _72
REMARK   33  A    between atoms: _75  and  _77
REMARK   34  A    between atoms: _77  and  _78
REMARK   35  A    between atoms: _77  and  _80
REMARK   36  A    between atoms: _80  and  _81
REMARK   37  A    between atoms: _84  and  _86
REMARK   38  A    between atoms: _86  and  _87
REMARK   39  A    between atoms: _86  and  _89
REMARK   40  A    between atoms: _89  and  _90
REMARK   41  A    between atoms: _95  and  _96
REMARK   42  A    between atoms: _98  and  _100
REMARK   43  A    between atoms: _100  and  _101
REMARK   44  A    between atoms: _100  and  _103
REMARK   45  A    between atoms: _103  and  _104
REMARK   46  A    between atoms: _107  and  _109
REMARK   47  A    between atoms: _109  and  _110
REMARK   48  A    between atoms: _109  and  _112
REMARK   49  A    between atoms: _112  and  _113
REMARK   50  A    between atoms: _116  and  _118
REMARK   51  A    between atoms: _118  and  _119
REMARK   52  A    between atoms: _118  and  _121
REMARK   53  A    between atoms: _124  and  _126
REMARK   54  A    between atoms: _126  and  _127
REMARK   55  A    between atoms: _126  and  _129
REMARK   56  A    between atoms: _129  and  _130
REMARK   57  A    between atoms: _130  and  _131
REMARK   58  A    between atoms: _131  and  _132
REMARK   59  A    between atoms: _141  and  _143
REMARK   60  A    between atoms: _143  and  _144
REMARK   61  A    between atoms: _143  and  _146
REMARK   62  A    between atoms: _146  and  _147
REMARK   63  A    between atoms: _152  and  _154
REMARK   64  A    between atoms: _154  and  _155
REMARK   65  A    between atoms: _154  and  _157
REMARK   66  A    between atoms: _157  and  _158
REMARK   67  A    between atoms: _158  and  _159
REMARK   68  A    between atoms: _162  and  _164
REMARK   69  A    between atoms: _164  and  _165
REMARK   70  A    between atoms: _164  and  _167
REMARK   71  A    between atoms: _167  and  _168
REMARK   72  A    between atoms: _168  and  _169
REMARK   73  A    between atoms: _169  and  _170
REMARK   74  A    between atoms: _170  and  _171
REMARK   75  A    between atoms: _175  and  _177
REMARK   76  A    between atoms: _177  and  _178
REMARK   77  A    between atoms: _180  and  _182
REMARK   78  A    between atoms: _182  and  _183
REMARK   79  A    between atoms: _182  and  _185
REMARK   80  A    between atoms: _188  and  _190
REMARK   81  A    between atoms: _190  and  _191
REMARK   82  A    between atoms: _190  and  _193
REMARK   83  A    between atoms: _193  and  _194
REMARK   84  A    between atoms: _196  and  _198
REMARK   85  A    between atoms: _198  and  _199
REMARK   86  A    between atoms: _198  and  _201
REMARK   87  A    between atoms: _201  and  _202
REMARK   88  A    between atoms: _204  and  _206
REMARK   89  A    between atoms: _206  and  _207
REMARK   90  A    between atoms: _206  and  _209
REMARK   91  A    between atoms: _209  and  _210
REMARK   92  A    between atoms: _216  and  _218
REMARK   93  A    between atoms: _218  and  _219
REMARK   94  A    between atoms: _218  and  _221
REMARK   95  A    between atoms: _221  and  _222
REMARK   96  A    between atoms: _225  and  _227
REMARK   97  A    between atoms: _227  and  _228
REMARK   98  A    between atoms: _227  and  _230
REMARK   99  A    between atoms: _230  and  _231
REMARK  100  A    between atoms: _234  and  _236
REMARK  101  A    between atoms: _236  and  _237
REMARK  102  A    between atoms: _236  and  _239
REMARK  103  A    between atoms: _239  and  _240
REMARK  104  A    between atoms: _243  and  _245
REMARK  105  A    between atoms: _245  and  _246
REMARK  106  A    between atoms: _245  and  _248
REMARK  107  A    between atoms: _248  and  _249
REMARK  108  A    between atoms: _249  and  _250
REMARK  109  A    between atoms: _252  and  _254
REMARK  110  A    between atoms: _254  and  _255
REMARK  111  A    between atoms: _254  and  _257
REMARK  112  A    between atoms: _257  and  _258
REMARK  113  A    between atoms: _264  and  _266
REMARK  114  A    between atoms: _266  and  _267
REMARK  115  A    between atoms: _266  and  _269
REMARK  116  A    between atoms: _271  and  _273
REMARK  117  A    between atoms: _273  and  _274
REMARK  118  A    between atoms: _277  and  _279
REMARK  119  A    between atoms: _279  and  _280
REMARK  120  A    between atoms: _282  and  _284
REMARK  121  A    between atoms: _284  and  _285
REMARK  122  A    between atoms: _284  and  _287
REMARK  123  A    between atoms: _287  and  _288
REMARK  124  A    between atoms: _288  and  _289
REMARK  125  A    between atoms: _292  and  _294
REMARK  126  A    between atoms: _294  and  _295
REMARK  127  A    between atoms: _294  and  _297
REMARK  128  A    between atoms: _297  and  _298
REMARK  129  A    between atoms: _301  and  _303
REMARK  130  A    between atoms: _303  and  _304
REMARK  131  A    between atoms: _307  and  _309
REMARK  132  A    between atoms: _309  and  _310
REMARK  133  A    between atoms: _309  and  _312
REMARK  134  A    between atoms: _312  and  _313
REMARK  135  A    between atoms: _313  and  _436
REMARK  136  A    between atoms: _314  and  _316
REMARK  137  A    between atoms: _316  and  _317
REMARK  138  A    between atoms: _316  and  _319
REMARK  139  A    between atoms: _319  and  _320
REMARK  140  A    between atoms: _320  and  _321
REMARK  141  A    between atoms: _326  and  _328
REMARK  142  A    between atoms: _328  and  _329
REMARK  143  A    between atoms: _331  and  _333
REMARK  144  A    between atoms: _333  and  _334
REMARK  145  A    between atoms: _333  and  _336
REMARK  146  A    between atoms: _336  and  _337
REMARK  147  A    between atoms: _340  and  _342
REMARK  148  A    between atoms: _342  and  _343
REMARK  149  A    between atoms: _342  and  _345
REMARK  150  A    between atoms: _345  and  _346
REMARK  151  A    between atoms: _348  and  _350
REMARK  152  A    between atoms: _350  and  _351
REMARK  153  A    between atoms: _353  and  _355
REMARK  154  A    between atoms: _355  and  _356
REMARK  155  A    between atoms: _358  and  _360
REMARK  156  A    between atoms: _360  and  _361
REMARK  157  A    between atoms: _360  and  _363
REMARK  158  A    between atoms: _363  and  _364
REMARK  159  A    between atoms: _369  and  _371
REMARK  160  A    between atoms: _371  and  _372
REMARK  161  A    between atoms: _371  and  _374
REMARK  162  A    between atoms: _374  and  _375
REMARK  163  A    between atoms: _378  and  _380
REMARK  164  A    between atoms: _380  and  _381
REMARK  165  A    between atoms: _380  and  _383
REMARK  166  A    between atoms: _386  and  _388
REMARK  167  A    between atoms: _388  and  _389
REMARK  168  A    between atoms: _388  and  _391
REMARK  169  A    between atoms: _391  and  _392
REMARK  170  A    between atoms: _394  and  _396
REMARK  171  A    between atoms: _396  and  _397
REMARK  172  A    between atoms: _396  and  _399
REMARK  173  A    between atoms: _399  and  _400
REMARK  174  A    between atoms: _410  and  _412
REMARK  175  A    between atoms: _412  and  _413
REMARK  176  A    between atoms: _415  and  _417
REMARK  177  A    between atoms: _417  and  _418
REMARK  178  A    between atoms: _417  and  _420
REMARK  179  A    between atoms: _420  and  _421
REMARK  180  A    between atoms: _421  and  _422
REMARK  181  A    between atoms: _425  and  _427
REMARK  182  A    between atoms: _427  and  _428
REMARK  183  A    between atoms: _430  and  _432
REMARK  184  A    between atoms: _432  and  _433
REMARK  185  A    between atoms: _432  and  _435
REMARK  186  A    between atoms: _435  and  _436
REMARK  187  A    between atoms: _437  and  _439
REMARK  188  A    between atoms: _439  and  _440
REMARK  189  A    between atoms: _443  and  _445
REMARK  190  A    between atoms: _445  and  _446
REMARK  191  A    between atoms: _445  and  _448
REMARK  192  A    between atoms: _448  and  _449
REMARK  193  A    between atoms: _449  and  _450
REMARK  194  A    between atoms: _450  and  _451
REMARK  195  A    between atoms: _460  and  _462
REMARK  196  A    between atoms: _462  and  _463
REMARK  197  A    between atoms: _462  and  _465
REMARK  198  A    between atoms: _465  and  _466
REMARK  199  A    between atoms: _466  and  _467
REMARK  200  A    between atoms: _467  and  _468
REMARK  201  A    between atoms: _468  and  _469
REMARK  202  A    between atoms: _473  and  _475
REMARK  203  A    between atoms: _475  and  _476
REMARK  204  A    between atoms: _475  and  _478
REMARK  205  A    between atoms: _478  and  _479
REMARK  206  A    between atoms: _484  and  _485
REMARK  207  A    between atoms: _487  and  _489
REMARK  208  A    between atoms: _489  and  _490
REMARK  209  A    between atoms: _492  and  _494
REMARK  210  A    between atoms: _494  and  _495
REMARK  211  A    between atoms: _494  and  _497
REMARK  212  A    between atoms: _497  and  _498
REMARK  213  A    between atoms: _501  and  _503
REMARK  214  A    between atoms: _503  and  _504
REMARK  215  A    between atoms: _503  and  _506
REMARK  216  A    between atoms: _506  and  _507
REMARK  217  A    between atoms: _512  and  _513
REMARK  218  A    between atoms: _515  and  _517
REMARK  219  A    between atoms: _517  and  _518
REMARK  220  A    between atoms: _517  and  _520
REMARK  221  A    between atoms: _520  and  _521
REMARK                            x       y       z     vdW  Elec       q    Type
REMARK                         _______ _______ _______ _____ _____    ______ ____
ROOT
ATOM      1  CA  ASP A   1       7.262  10.296  35.687  0.00  0.00    +0.144 C 
ENDROOT
BRANCH   1   2
ATOM      2  N   ASP A   1       7.683  10.630  37.054  0.00  0.00    -0.239 NA
ATOM      3  H   ASP A   1       8.284   9.958  37.573  0.00  0.00    +0.142 HD
ENDBRANCH   1   2
BRANCH   1   4
ATOM      4  C   ASP A   1       5.869   9.691  35.679  0.00  0.00    +0.225 C 
ATOM      5  O   ASP A   1       5.666   8.467  35.501  0.00  0.00    -0.287 OA
ENDBRANCH   1   4
BRANCH   1   6
ATOM      6  CB  ASP A   1       8.259   9.347  34.997  0.00  0.00    +0.139 C 
BRANCH   6   7
ATOM      7  CG  ASP A   1       7.966   9.178  33.516  0.00  0.00    +0.367 C 
ATOM      8  OD2 ASP A   1       7.063   9.906  33.018  0.00  0.00    -0.246 OA
ATOM      9  OD1 ASP A   1       8.584   8.305  32.842  0.00  0.00    -0.246 OA
ENDBRANCH   6   7
ENDBRANCH   1   6
TORSDOF 4
REMARK  Name = ../refined-set-2016/2vwm/2vwm_pocket.pdb
REMARK  221 active torsions:
REMARK  status: ('A' for Active; 'I' for Inactive)
REMARK    1  A    between atoms: _1  and  _5
REMARK    2  A    between atoms: _5  and  _6
REMARK    3  A    between atoms: _5  and  _8
REMARK    4  A    between atoms: _8  and  _9
REMARK    5  A    between atoms: _12  and  _14
REMARK    6  A    between atoms: _14  and  _15
REMARK    7  A    between atoms: _14  and  _17
REMARK    8  A    between atoms: _20  and  _22
REMARK    9  A    between atoms: _22  and  _23
REMARK   10  A    between atoms: _22  and  _25
REMARK   11  A    between atoms: _25  and  _26
REMARK   12  A    between atoms: _31  and  _33
REMARK   13  A    between atoms: _33  and  _34
REMARK   14  A    between atoms: _33  and  _36
REMARK   15  A    between atoms: _36  and  _37
REMARK   16  A    between atoms: _37  and  _38
REMARK   17  A    between atoms: _43  and  _45
REMARK   18  A    between atoms: _45  and  _46
REMARK   19  A    between atoms: _45  and  _48
REMARK   20  A    between atoms: _48  and  _49
REMARK   21  A    between atoms: _52  and  _54
REMARK   22  A    between atoms: _54  and  _55
REMARK   23  A    between atoms: _54  and  _57
REMARK   24  A    between atoms: _57  and  _58
REMARK   25  A    between atoms: _58  and  _59
REMARK   26  A    between atoms: _59  and  _60
REMARK   27  A    between atoms: _60  and  _61
REMARK   28  A    between atoms: _65  and  _67
REMARK   29  A    between atoms: _67  and  _68
REMARK   30  A    between atoms: _67  and  _70
REMARK   31  A    between atoms: _70  and  _71
REMARK   32  A    between atoms: _71  and  _72
REMARK   33  A    between atoms: _75  and  _77
REMARK   34  A    between atoms: _77  and  _78
REMARK   35  A    between atoms: _77  and  _80
REMARK   36  A    between atoms: _80  and  _81
REMARK   37  A    between atoms: _84  and  _86
REMARK   38  A    between atoms: _86  and  _87
REMARK   39  A    between atoms: _86  and  _89
REMARK   40  A    between atoms: _89  and  _90
REMARK   41  A    between atoms: _95  and  _96
REMARK   42  A    between atoms: _98  and  _100
REMARK   43  A    between atoms: _100  and  _101
REMARK   44  A    between atoms: _100  and  _103
REMARK   45  A    between atoms: _103  and  _104
REMARK   46  A    between atoms: _107  and  _109
REMARK   47  A    between atoms: _109  and  _110
REMARK   48  A    between atoms: _109  and  _112
REMARK   49  A    between atoms: _112  and  _113
REMARK   50  A    between atoms: _116  and  _118
REMARK   51  A    between atoms: _118  and  _119
REMARK   52  A    between atoms: _118  and  _121
REMARK   53  A    between atoms: _124  and  _126
REMARK   54  A    between atoms: _126  and  _127
REMARK   55  A    between atoms: _126  and  _129
REMARK   56  A    between atoms: _129  and  _130
REMARK   57  A    between atoms: _130  and  _131
REMARK   58  A    between atoms: _131  and  _132
REMARK   59  A    between atoms: _141  and  _143
REMARK   60  A    between atoms: _143  and  _144
REMARK   61  A    between atoms: _143  and  _146
REMARK   62  A    between atoms: _146  and  _147
REMARK   63  A    between atoms: _152  and  _154
REMARK   64  A    between atoms: _154  and  _155
REMARK   65  A    between atoms: _154  and  _157
REMARK   66  A    between atoms: _157  and  _158
REMARK   67  A    between atoms: _158  and  _159
REMARK   68  A    between atoms: _162  and  _164
REMARK   69  A    between atoms: _164  and  _165
REMARK   70  A    between atoms: _164  and  _167
REMARK   71  A    between atoms: _167  and  _168
REMARK   72  A    between atoms: _168  and  _169
REMARK   73  A    between atoms: _169  and  _170
REMARK   74  A    between atoms: _170  and  _171
REMARK   75  A    between atoms: _175  and  _177
REMARK   76  A    between atoms: _177  and  _178
REMARK   77  A    between atoms: _180  and  _182
REMARK   78  A    between atoms: _182  and  _183
REMARK   79  A    between atoms: _182  and  _185
REMARK   80  A    between atoms: _188  and  _190
REMARK   81  A    between atoms: _190  and  _191
REMARK   82  A    between atoms: _190  and  _193
REMARK   83  A    between atoms: _193  and  _194
REMARK   84  A    between atoms: _196  and  _198
REMARK   85  A    between atoms: _198  and  _199
REMARK   86  A    between atoms: _198  and  _201
REMARK   87  A    between atoms: _201  and  _202
REMARK   88  A    between atoms: _204  and  _206
REMARK   89  A    between atoms: _206  and  _207
REMARK   90  A    between atoms: _206  and  _209
REMARK   91  A    between atoms: _209  and  _210
REMARK   92  A    between atoms: _216  and  _218
REMARK   93  A    between atoms: _218  and  _219
REMARK   94  A    between atoms: _218  and  _221
REMARK   95  A    between atoms: _221  and  _222
REMARK   96  A    between atoms: _225  and  _227
REMARK   97  A    between atoms: _227  and  _228
REMARK   98  A    between atoms: _227  and  _230
REMARK   99  A    between atoms: _230  and  _231
REMARK  100  A    between atoms: _234  and  _236
REMARK  101  A    between atoms: _236  and  _237
REMARK  102  A    between atoms: _236  and  _239
REMARK  103  A    between atoms: _239  and  _240
REMARK  104  A    between atoms: _243  and  _245
REMARK  105  A    between atoms: _245  and  _246
REMARK  106  A    between atoms: _245  and  _248
REMARK  107  A    between atoms: _248  and  _249
REMARK  108  A    between atoms: _249  and  _250
REMARK  109  A    between atoms: _252  and  _254
REMARK  110  A    between atoms: _254  and  _255
REMARK  111  A    between atoms: _254  and  _257
REMARK  112  A    between atoms: _257  and  _258
REMARK  113  A    between atoms: _264  and  _266
REMARK  114  A    between atoms: _266  and  _267
REMARK  115  A    between atoms: _266  and  _269
REMARK  116  A    between atoms: _271  and  _273
REMARK  117  A    between atoms: _273  and  _274
REMARK  118  A    between atoms: _277  and  _279
REMARK  119  A    between atoms: _279  and  _280
REMARK  120  A    between atoms: _282  and  _284
REMARK  121  A    between atoms: _284  and  _285
REMARK  122  A    between atoms: _284  and  _287
REMARK  123  A    between atoms: _287  and  _288
REMARK  124  A    between atoms: _288  and  _289
REMARK  125  A    between atoms: _292  and  _294
REMARK  126  A    between atoms: _294  and  _295
REMARK  127  A    between atoms: _294  and  _297
REMARK  128  A    between atoms: _297  and  _298
REMARK  129  A    between atoms: _301  and  _303
REMARK  130  A    between atoms: _303  and  _304
REMARK  131  A    between atoms: _307  and  _309
REMARK  132  A    between atoms: _309  and  _310
REMARK  133  A    between atoms: _309  and  _312
REMARK  134  A    between atoms: _312  and  _313
REMARK  135  A    between atoms: _313  and  _436
REMARK  136  A    between atoms: _314  and  _316
REMARK  137  A    between atoms: _316  and  _317
REMARK  138  A    between atoms: _316  and  _319
REMARK  139  A    between atoms: _319  and  _320
REMARK  140  A    between atoms: _320  and  _321
REMARK  141  A    between atoms: _326  and  _328
REMARK  142  A    between atoms: _328  and  _329
REMARK  143  A    between atoms: _331  and  _333
REMARK  144  A    between atoms: _333  and  _334
REMARK  145  A    between atoms: _333  and  _336
REMARK  146  A    between atoms: _336  and  _337
REMARK  147  A    between atoms: _340  and  _342
REMARK  148  A    between atoms: _342  and  _343
REMARK  149  A    between atoms: _342  and  _345
REMARK  150  A    between atoms: _345  and  _346
REMARK  151  A    between atoms: _348  and  _350
REMARK  152  A    between atoms: _350  and  _351
REMARK  153  A    between atoms: _353  and  _355
REMARK  154  A    between atoms: _355  and  _356
REMARK  155  A    between atoms: _358  and  _360
REMARK  156  A    between atoms: _360  and  _361
REMARK  157  A    between atoms: _360  and  _363
REMARK  158  A    between atoms: _363  and  _364
REMARK  159  A    between atoms: _369  and  _371
REMARK  160  A    between atoms: _371  and  _372
REMARK  161  A    between atoms: _371  and  _374
REMARK  162  A    between atoms: _374  and  _375
REMARK  163  A    between atoms: _378  and  _380
REMARK  164  A    between atoms: _380  and  _381
REMARK  165  A    between atoms: _380  and  _383
REMARK  166  A    between atoms: _386  and  _388
REMARK  167  A    between atoms: _388  and  _389
REMARK  168  A    between atoms: _388  and  _391
REMARK  169  A    between atoms: _391  and  _392
REMARK  170  A    between atoms: _394  and  _396
REMARK  171  A    between atoms: _396  and  _397
REMARK  172  A    between atoms: _396  and  _399
REMARK  173  A    between atoms: _399  and  _400
REMARK  174  A    between atoms: _410  and  _412
REMARK  175  A    between atoms: _412  and  _413
REMARK  176  A    between atoms: _415  and  _417
REMARK  177  A    between atoms: _417  and  _418
REMARK  178  A    between atoms: _417  and  _420
REMARK  179  A    between atoms: _420  and  _421
REMARK  180  A    between atoms: _421  and  _422
REMARK  181  A    between atoms: _425  and  _427
REMARK  182  A    between atoms: _427  and  _428
REMARK  183  A    between atoms: _430  and  _432
REMARK  184  A    between atoms: _432  and  _433
REMARK  185  A    between atoms: _432  and  _435
REMARK  186  A    between atoms: _435  and  _436
REMARK  187  A    between atoms: _437  and  _439
REMARK  188  A    between atoms: _439  and  _440
REMARK  189  A    between atoms: _443  and  _445
REMARK  190  A    between atoms: _445  and  _446
REMARK  191  A    between atoms: _445  and  _448
REMARK  192  A    between atoms: _448  and  _449
REMARK  193  A    between atoms: _449  and  _450
REMARK  194  A    between atoms: _450  and  _451
REMARK  195  A    between atoms: _460  and  _462
REMARK  196  A    between atoms: _462  and  _463
REMARK  197  A    between atoms: _462  and  _465
REMARK  198  A    between atoms: _465  and  _466
REMARK  199  A    between atoms: _466  and  _467
REMARK  200  A    between atoms: _467  and  _468
REMARK  201  A    between atoms: _468  and  _469
REMARK  202  A    between atoms: _473  and  _475
REMARK  203  A    between atoms: _475  and  _476
REMARK  204  A    between atoms: _475  and  _478
REMARK  205  A    between atoms: _478  and  _479
REMARK  206  A    between atoms: _484  and  _485
REMARK  207  A    between atoms: _487  and  _489
REMARK  208  A    between atoms: _489  and  _490
REMARK  209  A    between atoms: _492  and  _494
REMARK  210  A    between atoms: _494  and  _495
REMARK  211  A    between atoms: _494  and  _497
REMARK  212  A    between atoms: _497  and  _498
REMARK  213  A    between atoms: _501  and  _503
REMARK  214  A    between atoms: _503  and  _504
REMARK  215  A    between atoms: _503  and  _506
REMARK  216  A    between atoms: _506  and  _507
REMARK  217  A    between atoms: _512  and  _513
REMARK  218  A    between atoms: _515  and  _517
REMARK  219  A    between atoms: _517  and  _518
REMARK  220  A    between atoms: _517  and  _520
REMARK  221  A    between atoms: _520  and  _521
REMARK                            x       y       z     vdW  Elec       q    Type
REMARK                         _______ _______ _______ _____ _____    ______ ____
ROOT
ATOM      1  CA  VAL A   1       4.702  -5.586  32.857  0.00  0.00    +0.133 C 
ENDROOT
BRANCH   1   2
ATOM      2  CB  VAL A   1       6.112  -4.975  32.669  0.00  0.00    +0.023 C 
ATOM      3  CG2 VAL A   1       7.059  -6.029  32.145  0.00  0.00    +0.002 C 
ATOM      4  CG1 VAL A   1       6.086  -3.762  31.733  0.00  0.00    +0.002 C 
ENDBRANCH   1   2
BRANCH   1   5
ATOM      5  N   VAL A   1       4.774  -6.770  33.711  0.00  0.00    -0.239 NA
ATOM      6  H   VAL A   1       5.419  -7.545  33.457  0.00  0.00    +0.142 HD
ENDBRANCH   1   5
BRANCH   1   7
ATOM      7  C   VAL A   1       4.131  -6.015  31.513  0.00  0.00    +0.224 C 
ATOM      8  O   VAL A   1       4.283  -7.172  31.109  0.00  0.00    -0.287 OA
ENDBRANCH   1   7
TORSDOF 3
REMARK  Name = ../refined-set-2016/2vwm/2vwm_pocket.pdb
REMARK  221 active torsions:
REMARK  status: ('A' for Active; 'I' for Inactive)
REMARK    1  A    between atoms: _1  and  _5
REMARK    2  A    between atoms: _5  and  _6
REMARK    3  A    between atoms: _5  and  _8
REMARK    4  A    between atoms: _8  and  _9
REMARK    5  A    between atoms: _12  and  _14
REMARK    6  A    between atoms: _14  and  _15
REMARK    7  A    between atoms: _14  and  _17
REMARK    8  A    between atoms: _20  and  _22
REMARK    9  A    between atoms: _22  and  _23
REMARK   10  A    between atoms: _22  and  _25
REMARK   11  A    between atoms: _25  and  _26
REMARK   12  A    between atoms: _31  and  _33
REMARK   13  A    between atoms: _33  and  _34
REMARK   14  A    between atoms: _33  and  _36
REMARK   15  A    between atoms: _36  and  _37
REMARK   16  A    between atoms: _37  and  _38
REMARK   17  A    between atoms: _43  and  _45
REMARK   18  A    between atoms: _45  and  _46
REMARK   19  A    between atoms: _45  and  _48
REMARK   20  A    between atoms: _48  and  _49
REMARK   21  A    between atoms: _52  and  _54
REMARK   22  A    between atoms: _54  and  _55
REMARK   23  A    between atoms: _54  and  _57
REMARK   24  A    between atoms: _57  and  _58
REMARK   25  A    between atoms: _58  and  _59
REMARK   26  A    between atoms: _59  and  _60
REMARK   27  A    between atoms: _60  and  _61
REMARK   28  A    between atoms: _65  and  _67
REMARK   29  A    between atoms: _67  and  _68
REMARK   30  A    between atoms: _67  and  _70
REMARK   31  A    between atoms: _70  and  _71
REMARK   32  A    between atoms: _71  and  _72
REMARK   33  A    between atoms: _75  and  _77
REMARK   34  A    between atoms: _77  and  _78
REMARK   35  A    between atoms: _77  and  _80
REMARK   36  A    between atoms: _80  and  _81
REMARK   37  A    between atoms: _84  and  _86
REMARK   38  A    between atoms: _86  and  _87
REMARK   39  A    between atoms: _86  and  _89
REMARK   40  A    between atoms: _89  and  _90
REMARK   41  A    between atoms: _95  and  _96
REMARK   42  A    between atoms: _98  and  _100
REMARK   43  A    between atoms: _100  and  _101
REMARK   44  A    between atoms: _100  and  _103
REMARK   45  A    between atoms: _103  and  _104
REMARK   46  A    between atoms: _107  and  _109
REMARK   47  A    between atoms: _109  and  _110
REMARK   48  A    between atoms: _109  and  _112
REMARK   49  A    between atoms: _112  and  _113
REMARK   50  A    between atoms: _116  and  _118
REMARK   51  A    between atoms: _118  and  _119
REMARK   52  A    between atoms: _118  and  _121
REMARK   53  A    between atoms: _124  and  _126
REMARK   54  A    between atoms: _126  and  _127
REMARK   55  A    between atoms: _126  and  _129
REMARK   56  A    between atoms: _129  and  _130
REMARK   57  A    between atoms: _130  and  _131
REMARK   58  A    between atoms: _131  and  _132
REMARK   59  A    between atoms: _141  and  _143
REMARK   60  A    between atoms: _143  and  _144
REMARK   61  A    between atoms: _143  and  _146
REMARK   62  A    between atoms: _146  and  _147
REMARK   63  A    between atoms: _152  and  _154
REMARK   64  A    between atoms: _154  and  _155
REMARK   65  A    between atoms: _154  and  _157
REMARK   66  A    between atoms: _157  and  _158
REMARK   67  A    between atoms: _158  and  _159
REMARK   68  A    between atoms: _162  and  _164
REMARK   69  A    between atoms: _164  and  _165
REMARK   70  A    between atoms: _164  and  _167
REMARK   71  A    between atoms: _167  and  _168
REMARK   72  A    between atoms: _168  and  _169
REMARK   73  A    between atoms: _169  and  _170
REMARK   74  A    between atoms: _170  and  _171
REMARK   75  A    between atoms: _175  and  _177
REMARK   76  A    between atoms: _177  and  _178
REMARK   77  A    between atoms: _180  and  _182
REMARK   78  A    between atoms: _182  and  _183
REMARK   79  A    between atoms: _182  and  _185
REMARK   80  A    between atoms: _188  and  _190
REMARK   81  A    between atoms: _190  and  _191
REMARK   82  A    between atoms: _190  and  _193
REMARK   83  A    between atoms: _193  and  _194
REMARK   84  A    between atoms: _196  and  _198
REMARK   85  A    between atoms: _198  and  _199
REMARK   86  A    between atoms: _198  and  _201
REMARK   87  A    between atoms: _201  and  _202
REMARK   88  A    between atoms: _204  and  _206
REMARK   89  A    between atoms: _206  and  _207
REMARK   90  A    between atoms: _206  and  _209
REMARK   91  A    between atoms: _209  and  _210
REMARK   92  A    between atoms: _216  and  _218
REMARK   93  A    between atoms: _218  and  _219
REMARK   94  A    between atoms: _218  and  _221
REMARK   95  A    between atoms: _221  and  _222
REMARK   96  A    between atoms: _225  and  _227
REMARK   97  A    between atoms: _227  and  _228
REMARK   98  A    between atoms: _227  and  _230
REMARK   99  A    between atoms: _230  and  _231
REMARK  100  A    between atoms: _234  and  _236
REMARK  101  A    between atoms: _236  and  _237
REMARK  102  A    between atoms: _236  and  _239
REMARK  103  A    between atoms: _239  and  _240
REMARK  104  A    between atoms: _243  and  _245
REMARK  105  A    between atoms: _245  and  _246
REMARK  106  A    between atoms: _245  and  _248
REMARK  107  A    between atoms: _248  and  _249
REMARK  108  A    between atoms: _249  and  _250
REMARK  109  A    between atoms: _252  and  _254
REMARK  110  A    between atoms: _254  and  _255
REMARK  111  A    between atoms: _254  and  _257
REMARK  112  A    between atoms: _257  and  _258
REMARK  113  A    between atoms: _264  and  _266
REMARK  114  A    between atoms: _266  and  _267
REMARK  115  A    between atoms: _266  and  _269
REMARK  116  A    between atoms: _271  and  _273
REMARK  117  A    between atoms: _273  and  _274
REMARK  118  A    between atoms: _277  and  _279
REMARK  119  A    between atoms: _279  and  _280
REMARK  120  A    between atoms: _282  and  _284
REMARK  121  A    between atoms: _284  and  _285
REMARK  122  A    between atoms: _284  and  _287
REMARK  123  A    between atoms: _287  and  _288
REMARK  124  A    between atoms: _288  and  _289
REMARK  125  A    between atoms: _292  and  _294
REMARK  126  A    between atoms: _294  and  _295
REMARK  127  A    between atoms: _294  and  _297
REMARK  128  A    between atoms: _297  and  _298
REMARK  129  A    between atoms: _301  and  _303
REMARK  130  A    between atoms: _303  and  _304
REMARK  131  A    between atoms: _307  and  _309
REMARK  132  A    between atoms: _309  and  _310
REMARK  133  A    between atoms: _309  and  _312
REMARK  134  A    between atoms: _312  and  _313
REMARK  135  A    between atoms: _313  and  _436
REMARK  136  A    between atoms: _314  and  _316
REMARK  137  A    between atoms: _316  and  _317
REMARK  138  A    between atoms: _316  and  _319
REMARK  139  A    between atoms: _319  and  _320
REMARK  140  A    between atoms: _320  and  _321
REMARK  141  A    between atoms: _326  and  _328
REMARK  142  A    between atoms: _328  and  _329
REMARK  143  A    between atoms: _331  and  _333
REMARK  144  A    between atoms: _333  and  _334
REMARK  145  A    between atoms: _333  and  _336
REMARK  146  A    between atoms: _336  and  _337
REMARK  147  A    between atoms: _340  and  _342
REMARK  148  A    between atoms: _342  and  _343
REMARK  149  A    between atoms: _342  and  _345
REMARK  150  A    between atoms: _345  and  _346
REMARK  151  A    between atoms: _348  and  _350
REMARK  152  A    between atoms: _350  and  _351
REMARK  153  A    between atoms: _353  and  _355
REMARK  154  A    between atoms: _355  and  _356
REMARK  155  A    between atoms: _358  and  _360
REMARK  156  A    between atoms: _360  and  _361
REMARK  157  A    between atoms: _360  and  _363
REMARK  158  A    between atoms: _363  and  _364
REMARK  159  A    between atoms: _369  and  _371
REMARK  160  A    between atoms: _371  and  _372
REMARK  161  A    between atoms: _371  and  _374
REMARK  162  A    between atoms: _374  and  _375
REMARK  163  A    between atoms: _378  and  _380
REMARK  164  A    between atoms: _380  and  _381
REMARK  165  A    between atoms: _380  and  _383
REMARK  166  A    between atoms: _386  and  _388
REMARK  167  A    between atoms: _388  and  _389
REMARK  168  A    between atoms: _388  and  _391
REMARK  169  A    between atoms: _391  and  _392
REMARK  170  A    between atoms: _394  and  _396
REMARK  171  A    between atoms: _396  and  _397
REMARK  172  A    between atoms: _396  and  _399
REMARK  173  A    between atoms: _399  and  _400
REMARK  174  A    between atoms: _410  and  _412
REMARK  175  A    between atoms: _412  and  _413
REMARK  176  A    between atoms: _415  and  _417
REMARK  177  A    between atoms: _417  and  _418
REMARK  178  A    between atoms: _417  and  _420
REMARK  179  A    between atoms: _420  and  _421
REMARK  180  A    between atoms: _421  and  _422
REMARK  181  A    between atoms: _425  and  _427
REMARK  182  A    between atoms: _427  and  _428
REMARK  183  A    between atoms: _430  and  _432
REMARK  184  A    between atoms: _432  and  _433
REMARK  185  A    between atoms: _432  and  _435
REMARK  186  A    between atoms: _435  and  _436
REMARK  187  A    between atoms: _437  and  _439
REMARK  188  A    between atoms: _439  and  _440
REMARK  189  A    between atoms: _443  and  _445
REMARK  190  A    between atoms: _445  and  _446
REMARK  191  A    between atoms: _445  and  _448
REMARK  192  A    between atoms: _448  and  _449
REMARK  193  A    between atoms: _449  and  _450
REMARK  194  A    between atoms: _450  and  _451
REMARK  195  A    between atoms: _460  and  _462
REMARK  196  A    between atoms: _462  and  _463
REMARK  197  A    between atoms: _462  and  _465
REMARK  198  A    between atoms: _465  and  _466
REMARK  199  A    between atoms: _466  and  _467
REMARK  200  A    between atoms: _467  and  _468
REMARK  201  A    between atoms: _468  and  _469
REMARK  202  A    between atoms: _473  and  _475
REMARK  203  A    between atoms: _475  and  _476
REMARK  204  A    between atoms: _475  and  _478
REMARK  205  A    between atoms: _478  and  _479
REMARK  206  A    between atoms: _484  and  _485
REMARK  207  A    between atoms: _487  and  _489
REMARK  208  A    between atoms: _489  and  _490
REMARK  209  A    between atoms: _492  and  _494
REMARK  210  A    between atoms: _494  and  _495
REMARK  211  A    between atoms: _494  and  _497
REMARK  212  A    between atoms: _497  and  _498
REMARK  213  A    between atoms: _501  and  _503
REMARK  214  A    between atoms: _503  and  _504
REMARK  215  A    between atoms: _503  and  _506
REMARK  216  A    between atoms: _506  and  _507
REMARK  217  A    between atoms: _512  and  _513
REMARK  218  A    between atoms: _515  and  _517
REMARK  219  A    between atoms: _517  and  _518
REMARK  220  A    between atoms: _517  and  _520
REMARK  221  A    between atoms: _520  and  _521
REMARK                            x       y       z     vdW  Elec       q    Type
REMARK                         _______ _______ _______ _____ _____    ______ ____
ROOT
ATOM      1  NE  ARG A   1      11.364   0.738  18.015  0.00  0.00    -0.265 N 
ATOM      2  HE  ARG A   1      10.386   0.924  17.715  0.00  0.00    +0.259 HD
ATOM      3  CZ  ARG A   1      12.334   1.471  17.469  0.00  0.00    +0.342 C 
ATOM      4  NH2 ARG A   1      13.601   1.272  17.816  0.00  0.00    -0.292 N 
ATOM      5 HH21 ARG A   1      13.840   0.541  18.517  0.00  0.00    +0.255 HD
ATOM      6 HH22 ARG A   1      14.354   1.847  17.387  0.00  0.00    +0.255 HD
ATOM      7  NH1 ARG A   1      12.041   2.405  16.567  0.00  0.00    -0.292 N 
ATOM      8 HH11 ARG A   1      11.052   2.565  16.286  0.00  0.00    +0.255 HD
ATOM      9 HH12 ARG A   1      12.801   2.975  16.143  0.00  0.00    +0.255 HD
ENDROOT
BRANCH   1  10
ATOM     10  CD  ARG A   1      11.588  -0.314  19.012  0.00  0.00    +0.174 C 
BRANCH  10  11
ATOM     11  CG  ARG A   1      10.276  -0.880  19.536  0.00  0.00    +0.045 C 
BRANCH  11  12
ATOM     12  CB  ARG A   1      10.490  -2.228  20.258  0.00  0.00    +0.029 C 
BRANCH  12  13
ATOM     13  CA  ARG A   1       9.205  -3.009  20.525  0.00  0.00    +0.133 C 
BRANCH  13  14
ATOM     14  N   ARG A   1       8.244  -2.246  21.324  0.00  0.00    -0.239 NA
ATOM     15  H   ARG A   1       8.489  -1.285  21.637  0.00  0.00    +0.142 HD
ENDBRANCH  13  14
BRANCH  13  16
ATOM     16  C   ARG A   1       9.520  -4.326  21.191  0.00  0.00    +0.224 C 
ATOM     17  O   ARG A   1       9.608  -4.425  22.407  0.00  0.00    -0.287 OA
ENDBRANCH  13  16
ENDBRANCH  12  13
ENDBRANCH  11  12
ENDBRANCH  10  11
ENDBRANCH   1  10
TORSDOF 6
REMARK  Name = ../refined-set-2016/2vwm/2vwm_pocket.pdb
REMARK  221 active torsions:
REMARK  status: ('A' for Active; 'I' for Inactive)
REMARK    1  A    between atoms: _1  and  _5
REMARK    2  A    between atoms: _5  and  _6
REMARK    3  A    between atoms: _5  and  _8
REMARK    4  A    between atoms: _8  and  _9
REMARK    5  A    between atoms: _12  and  _14
REMARK    6  A    between atoms: _14  and  _15
REMARK    7  A    between atoms: _14  and  _17
REMARK    8  A    between atoms: _20  and  _22
REMARK    9  A    between atoms: _22  and  _23
REMARK   10  A    between atoms: _22  and  _25
REMARK   11  A    between atoms: _25  and  _26
REMARK   12  A    between atoms: _31  and  _33
REMARK   13  A    between atoms: _33  and  _34
REMARK   14  A    between atoms: _33  and  _36
REMARK   15  A    between atoms: _36  and  _37
REMARK   16  A    between atoms: _37  and  _38
REMARK   17  A    between atoms: _43  and  _45
REMARK   18  A    between atoms: _45  and  _46
REMARK   19  A    between atoms: _45  and  _48
REMARK   20  A    between atoms: _48  and  _49
REMARK   21  A    between atoms: _52  and  _54
REMARK   22  A    between atoms: _54  and  _55
REMARK   23  A    between atoms: _54  and  _57
REMARK   24  A    between atoms: _57  and  _58
REMARK   25  A    between atoms: _58  and  _59
REMARK   26  A    between atoms: _59  and  _60
REMARK   27  A    between atoms: _60  and  _61
REMARK   28  A    between atoms: _65  and  _67
REMARK   29  A    between atoms: _67  and  _68
REMARK   30  A    between atoms: _67  and  _70
REMARK   31  A    between atoms: _70  and  _71
REMARK   32  A    between atoms: _71  and  _72
REMARK   33  A    between atoms: _75  and  _77
REMARK   34  A    between atoms: _77  and  _78
REMARK   35  A    between atoms: _77  and  _80
REMARK   36  A    between atoms: _80  and  _81
REMARK   37  A    between atoms: _84  and  _86
REMARK   38  A    between atoms: _86  and  _87
REMARK   39  A    between atoms: _86  and  _89
REMARK   40  A    between atoms: _89  and  _90
REMARK   41  A    between atoms: _95  and  _96
REMARK   42  A    between atoms: _98  and  _100
REMARK   43  A    between atoms: _100  and  _101
REMARK   44  A    between atoms: _100  and  _103
REMARK   45  A    between atoms: _103  and  _104
REMARK   46  A    between atoms: _107  and  _109
REMARK   47  A    between atoms: _109  and  _110
REMARK   48  A    between atoms: _109  and  _112
REMARK   49  A    between atoms: _112  and  _113
REMARK   50  A    between atoms: _116  and  _118
REMARK   51  A    between atoms: _118  and  _119
REMARK   52  A    between atoms: _118  and  _121
REMARK   53  A    between atoms: _124  and  _126
REMARK   54  A    between atoms: _126  and  _127
REMARK   55  A    between atoms: _126  and  _129
REMARK   56  A    between atoms: _129  and  _130
REMARK   57  A    between atoms: _130  and  _131
REMARK   58  A    between atoms: _131  and  _132
REMARK   59  A    between atoms: _141  and  _143
REMARK   60  A    between atoms: _143  and  _144
REMARK   61  A    between atoms: _143  and  _146
REMARK   62  A    between atoms: _146  and  _147
REMARK   63  A    between atoms: _152  and  _154
REMARK   64  A    between atoms: _154  and  _155
REMARK   65  A    between atoms: _154  and  _157
REMARK   66  A    between atoms: _157  and  _158
REMARK   67  A    between atoms: _158  and  _159
REMARK   68  A    between atoms: _162  and  _164
REMARK   69  A    between atoms: _164  and  _165
REMARK   70  A    between atoms: _164  and  _167
REMARK   71  A    between atoms: _167  and  _168
REMARK   72  A    between atoms: _168  and  _169
REMARK   73  A    between atoms: _169  and  _170
REMARK   74  A    between atoms: _170  and  _171
REMARK   75  A    between atoms: _175  and  _177
REMARK   76  A    between atoms: _177  and  _178
REMARK   77  A    between atoms: _180  and  _182
REMARK   78  A    between atoms: _182  and  _183
REMARK   79  A    between atoms: _182  and  _185
REMARK   80  A    between atoms: _188  and  _190
REMARK   81  A    between atoms: _190  and  _191
REMARK   82  A    between atoms: _190  and  _193
REMARK   83  A    between atoms: _193  and  _194
REMARK   84  A    between atoms: _196  and  _198
REMARK   85  A    between atoms: _198  and  _199
REMARK   86  A    between atoms: _198  and  _201
REMARK   87  A    between atoms: _201  and  _202
REMARK   88  A    between atoms: _204  and  _206
REMARK   89  A    between atoms: _206  and  _207
REMARK   90  A    between atoms: _206  and  _209
REMARK   91  A    between atoms: _209  and  _210
REMARK   92  A    between atoms: _216  and  _218
REMARK   93  A    between atoms: _218  and  _219
REMARK   94  A    between atoms: _218  and  _221
REMARK   95  A    between atoms: _221  and  _222
REMARK   96  A    between atoms: _225  and  _227
REMARK   97  A    between atoms: _227  and  _228
REMARK   98  A    between atoms: _227  and  _230
REMARK   99  A    between atoms: _230  and  _231
REMARK  100  A    between atoms: _234  and  _236
REMARK  101  A    between atoms: _236  and  _237
REMARK  102  A    between atoms: _236  and  _239
REMARK  103  A    between atoms: _239  and  _240
REMARK  104  A    between atoms: _243  and  _245
REMARK  105  A    between atoms: _245  and  _246
REMARK  106  A    between atoms: _245  and  _248
REMARK  107  A    between atoms: _248  and  _249
REMARK  108  A    between atoms: _249  and  _250
REMARK  109  A    between atoms: _252  and  _254
REMARK  110  A    between atoms: _254  and  _255
REMARK  111  A    between atoms: _254  and  _257
REMARK  112  A    between atoms: _257  and  _258
REMARK  113  A    between atoms: _264  and  _266
REMARK  114  A    between atoms: _266  and  _267
REMARK  115  A    between atoms: _266  and  _269
REMARK  116  A    between atoms: _271  and  _273
REMARK  117  A    between atoms: _273  and  _274
REMARK  118  A    between atoms: _277  and  _279
REMARK  119  A    between atoms: _279  and  _280
REMARK  120  A    between atoms: _282  and  _284
REMARK  121  A    between atoms: _284  and  _285
REMARK  122  A    between atoms: _284  and  _287
REMARK  123  A    between atoms: _287  and  _288
REMARK  124  A    between atoms: _288  and  _289
REMARK  125  A    between atoms: _292  and  _294
REMARK  126  A    between atoms: _294  and  _295
REMARK  127  A    between atoms: _294  and  _297
REMARK  128  A    between atoms: _297  and  _298
REMARK  129  A    between atoms: _301  and  _303
REMARK  130  A    between atoms: _303  and  _304
REMARK  131  A    between atoms: _307  and  _309
REMARK  132  A    between atoms: _309  and  _310
REMARK  133  A    between atoms: _309  and  _312
REMARK  134  A    between atoms: _312  and  _313
REMARK  135  A    between atoms: _313  and  _436
REMARK  136  A    between atoms: _314  and  _316
REMARK  137  A    between atoms: _316  and  _317
REMARK  138  A    between atoms: _316  and  _319
REMARK  139  A    between atoms: _319  and  _320
REMARK  140  A    between atoms: _320  and  _321
REMARK  141  A    between atoms: _326  and  _328
REMARK  142  A    between atoms: _328  and  _329
REMARK  143  A    between atoms: _331  and  _333
REMARK  144  A    between atoms: _333  and  _334
REMARK  145  A    between atoms: _333  and  _336
REMARK  146  A    between atoms: _336  and  _337
REMARK  147  A    between atoms: _340  and  _342
REMARK  148  A    between atoms: _342  and  _343
REMARK  149  A    between atoms: _342  and  _345
REMARK  150  A    between atoms: _345  and  _346
REMARK  151  A    between atoms: _348  and  _350
REMARK  152  A    between atoms: _350  and  _351
REMARK  153  A    between atoms: _353  and  _355
REMARK  154  A    between atoms: _355  and  _356
REMARK  155  A    between atoms: _358  and  _360
REMARK  156  A    between atoms: _360  and  _361
REMARK  157  A    between atoms: _360  and  _363
REMARK  158  A    between atoms: _363  and  _364
REMARK  159  A    between atoms: _369  and  _371
REMARK  160  A    between atoms: _371  and  _372
REMARK  161  A    between atoms: _371  and  _374
REMARK  162  A    between atoms: _374  and  _375
REMARK  163  A    between atoms: _378  and  _380
REMARK  164  A    between atoms: _380  and  _381
REMARK  165  A    between atoms: _380  and  _383
REMARK  166  A    between atoms: _386  and  _388
REMARK  167  A    between atoms: _388  and  _389
REMARK  168  A    between atoms: _388  and  _391
REMARK  169  A    between atoms: _391  and  _392
REMARK  170  A    between atoms: _394  and  _396
REMARK  171  A    between atoms: _396  and  _397
REMARK  172  A    between atoms: _396  and  _399
REMARK  173  A    between atoms: _399  and  _400
REMARK  174  A    between atoms: _410  and  _412
REMARK  175  A    between atoms: _412  and  _413
REMARK  176  A    between atoms: _415  and  _417
REMARK  177  A    between atoms: _417  and  _418
REMARK  178  A    between atoms: _417  and  _420
REMARK  179  A    between atoms: _420  and  _421
REMARK  180  A    between atoms: _421  and  _422
REMARK  181  A    between atoms: _425  and  _427
REMARK  182  A    between atoms: _427  and  _428
REMARK  183  A    between atoms: _430  and  _432
REMARK  184  A    between atoms: _432  and  _433
REMARK  185  A    between atoms: _432  and  _435
REMARK  186  A    between atoms: _435  and  _436
REMARK  187  A    between atoms: _437  and  _439
REMARK  188  A    between atoms: _439  and  _440
REMARK  189  A    between atoms: _443  and  _445
REMARK  190  A    between atoms: _445  and  _446
REMARK  191  A    between atoms: _445  and  _448
REMARK  192  A    between atoms: _448  and  _449
REMARK  193  A    between atoms: _449  and  _450
REMARK  194  A    between atoms: _450  and  _451
REMARK  195  A    between atoms: _460  and  _462
REMARK  196  A    between atoms: _462  and  _463
REMARK  197  A    between atoms: _462  and  _465
REMARK  198  A    between atoms: _465  and  _466
REMARK  199  A    between atoms: _466  and  _467
REMARK  200  A    between atoms: _467  and  _468
REMARK  201  A    between atoms: _468  and  _469
REMARK  202  A    between atoms: _473  and  _475
REMARK  203  A    between atoms: _475  and  _476
REMARK  204  A    between atoms: _475  and  _478
REMARK  205  A    between atoms: _478  and  _479
REMARK  206  A    between atoms: _484  and  _485
REMARK  207  A    between atoms: _487  and  _489
REMARK  208  A    between atoms: _489  and  _490
REMARK  209  A    between atoms: _492  and  _494
REMARK  210  A    between atoms: _494  and  _495
REMARK  211  A    between atoms: _494  and  _497
REMARK  212  A    between atoms: _497  and  _498
REMARK  213  A    between atoms: _501  and  _503
REMARK  214  A    between atoms: _503  and  _504
REMARK  215  A    between atoms: _503  and  _506
REMARK  216  A    between atoms: _506  and  _507
REMARK  217  A    between atoms: _512  and  _513
REMARK  218  A    between atoms: _515  and  _517
REMARK  219  A    between atoms: _517  and  _518
REMARK  220  A    between atoms: _517  and  _520
REMARK  221  A    between atoms: _520  and  _521
REMARK                            x       y       z     vdW  Elec       q    Type
REMARK                         _______ _______ _______ _____ _____    ______ ____
ROOT
ATOM      1  C   GLU A   2      15.462  -1.880  19.919  0.00  0.00    +0.241 C 
ATOM      2  O   GLU A   2      14.979  -0.748  19.858  0.00  0.00    -0.273 OA
ATOM      3  N   LYS A   3      15.923  -2.516  18.844  0.00  0.00    -0.297 N 
ATOM      4  H   LYS A   3      16.320  -3.471  18.957  0.00  0.00    +0.150 HD
ENDROOT
BRANCH   3   5
ATOM      5  CA  LYS A   3      15.890  -1.912  17.495  0.00  0.00    +0.149 C 
BRANCH   5   6
ATOM      6  C   LYS A   3      14.806  -2.548  16.630  0.00  0.00    +0.241 C 
ATOM      7  N   GLY A   4      14.009  -3.414  17.240  0.00  0.00    -0.296 N 
ATOM      8  H   GLY A   4      14.118  -3.569  18.263  0.00  0.00    +0.150 HD
ATOM      9  O   LYS A   3      14.701  -2.275  15.428  0.00  0.00    -0.273 OA
BRANCH   7  10
ATOM     10  CA  GLY A   4      12.990  -4.150  16.518  0.00  0.00    +0.163 C 
BRANCH  10  11
ATOM     11  C   GLY A   4      11.818  -3.250  16.220  0.00  0.00    +0.229 C 
ATOM     12  O   GLY A   4      11.929  -2.030  16.269  0.00  0.00    -0.286 OA
ENDBRANCH  10  11
ENDBRANCH   7  10
ENDBRANCH   5   6
BRANCH   5  13
ATOM     13  CB  LYS A   3      17.252  -2.094  16.809  0.00  0.00    +0.029 C 
BRANCH  13  14
ATOM     14  CG  LYS A   3      18.358  -1.260  17.412  0.00  0.00    +0.000 C 
BRANCH  14  15
ATOM     15  CD  LYS A   3      19.520  -2.140  17.870  0.00  0.00    -0.024 C 
BRANCH  15  16
ATOM     16  CE  LYS A   3      20.757  -1.303  18.159  0.00  0.00    -0.086 C 
BRANCH  16  17
ATOM     17  NZ  LYS A   3      21.538  -1.814  19.331  0.00  0.00    +0.380 N 
ATOM     18  HZ1 LYS A   3      20.937  -1.800  20.179  0.00  0.00    -0.089 HD
ATOM     19  HZ2 LYS A   3      22.369  -1.208  19.483  0.00  0.00    -0.089 HD
ATOM     20  HZ3 LYS A   3      21.848  -2.788  19.141  0.00  0.00    -0.089 HD
ENDBRANCH  16  17
ENDBRANCH  15  16
ENDBRANCH  14  15
ENDBRANCH  13  14
ENDBRANCH   5  13
ENDBRANCH   3   5
BRANCH   1  21
ATOM     21  CA  GLU A   2      15.570  -2.623  21.265  0.00  0.00    +0.149 C 
BRANCH  21  23
ATOM     22  C   HIS A   1      14.049  -4.367  20.484  0.00  0.00    +0.239 C 
ATOM     23  N   GLU A   2      15.134  -4.030  21.179  0.00  0.00    -0.297 N 
ATOM     24  H   GLU A   2      15.681  -4.768  21.667  0.00  0.00    +0.150 HD
ATOM     25  O   HIS A   1      13.353  -3.533  19.899  0.00  0.00    -0.274 OA
BRANCH  22  26
ATOM     26  CA  HIS A   1      13.698  -5.845  20.394  0.00  0.00    +0.151 C 
BRANCH  26  27
ATOM     27  N   HIS A   1      12.237  -5.951  20.258  0.00  0.00    -0.238 NA
ATOM     28  H   HIS A   1      11.739  -5.195  19.747  0.00  0.00    +0.142 HD
ENDBRANCH  26  27
BRANCH  26  29
ATOM     29  CB  HIS A   1      14.419  -6.440  19.181  0.00  0.00    +0.074 C 
BRANCH  29  30
ATOM     30  CG  HIS A   1      15.909  -6.252  19.214  0.00  0.00    +0.082 A 
ATOM     31  CD2 HIS A   1      16.896  -7.042  19.701  0.00  0.00    +0.115 A 
ATOM     32  NE2 HIS A   1      18.084  -6.382  19.495  0.00  0.00    -0.221 NA
ATOM     33  CE1 HIS A   1      17.836  -5.231  18.896  0.00  0.00    +0.199 A 
ATOM     34  ND1 HIS A   1      16.532  -5.126  18.717  0.00  0.00    -0.227 NA
ENDBRANCH  29  30
ENDBRANCH  26  29
ENDBRANCH  22  26
ENDBRANCH  21  23
BRANCH  21  35
ATOM     35  CB  GLU A   2      17.009  -2.517  21.798  0.00  0.00    +0.041 C 
BRANCH  35  36
ATOM     36  CG  GLU A   2      17.448  -1.088  22.136  0.00  0.00    +0.116 C 
BRANCH  36  37
ATOM     37  CD  GLU A   2      18.832  -1.019  22.760  0.00  0.00    +0.365 C 
ATOM     38  OE2 GLU A   2      19.216  -1.941  23.517  0.00  0.00    -0.246 OA
ATOM     39  OE1 GLU A   2      19.542  -0.026  22.496  0.00  0.00    -0.246 OA
ENDBRANCH  36  37
ENDBRANCH  35  36
ENDBRANCH  21  35
ENDBRANCH   1  21
TORSDOF 18
REMARK  Name = ../refined-set-2016/2vwm/2vwm_pocket.pdb
REMARK  221 active torsions:
REMARK  status: ('A' for Active; 'I' for Inactive)
REMARK    1  A    between atoms: _1  and  _5
REMARK    2  A    between atoms: _5  and  _6
REMARK    3  A    between atoms: _5  and  _8
REMARK    4  A    between atoms: _8  and  _9
REMARK    5  A    between atoms: _12  and  _14
REMARK    6  A    between atoms: _14  and  _15
REMARK    7  A    between atoms: _14  and  _17
REMARK    8  A    between atoms: _20  and  _22
REMARK    9  A    between atoms: _22  and  _23
REMARK   10  A    between atoms: _22  and  _25
REMARK   11  A    between atoms: _25  and  _26
REMARK   12  A    between atoms: _31  and  _33
REMARK   13  A    between atoms: _33  and  _34
REMARK   14  A    between atoms: _33  and  _36
REMARK   15  A    between atoms: _36  and  _37
REMARK   16  A    between atoms: _37  and  _38
REMARK   17  A    between atoms: _43  and  _45
REMARK   18  A    between atoms: _45  and  _46
REMARK   19  A    between atoms: _45  and  _48
REMARK   20  A    between atoms: _48  and  _49
REMARK   21  A    between atoms: _52  and  _54
REMARK   22  A    between atoms: _54  and  _55
REMARK   23  A    between atoms: _54  and  _57
REMARK   24  A    between atoms: _57  and  _58
REMARK   25  A    between atoms: _58  and  _59
REMARK   26  A    between atoms: _59  and  _60
REMARK   27  A    between atoms: _60  and  _61
REMARK   28  A    between atoms: _65  and  _67
REMARK   29  A    between atoms: _67  and  _68
REMARK   30  A    between atoms: _67  and  _70
REMARK   31  A    between atoms: _70  and  _71
REMARK   32  A    between atoms: _71  and  _72
REMARK   33  A    between atoms: _75  and  _77
REMARK   34  A    between atoms: _77  and  _78
REMARK   35  A    between atoms: _77  and  _80
REMARK   36  A    between atoms: _80  and  _81
REMARK   37  A    between atoms: _84  and  _86
REMARK   38  A    between atoms: _86  and  _87
REMARK   39  A    between atoms: _86  and  _89
REMARK   40  A    between atoms: _89  and  _90
REMARK   41  A    between atoms: _95  and  _96
REMARK   42  A    between atoms: _98  and  _100
REMARK   43  A    between atoms: _100  and  _101
REMARK   44  A    between atoms: _100  and  _103
REMARK   45  A    between atoms: _103  and  _104
REMARK   46  A    between atoms: _107  and  _109
REMARK   47  A    between atoms: _109  and  _110
REMARK   48  A    between atoms: _109  and  _112
REMARK   49  A    between atoms: _112  and  _113
REMARK   50  A    between atoms: _116  and  _118
REMARK   51  A    between atoms: _118  and  _119
REMARK   52  A    between atoms: _118  and  _121
REMARK   53  A    between atoms: _124  and  _126
REMARK   54  A    between atoms: _126  and  _127
REMARK   55  A    between atoms: _126  and  _129
REMARK   56  A    between atoms: _129  and  _130
REMARK   57  A    between atoms: _130  and  _131
REMARK   58  A    between atoms: _131  and  _132
REMARK   59  A    between atoms: _141  and  _143
REMARK   60  A    between atoms: _143  and  _144
REMARK   61  A    between atoms: _143  and  _146
REMARK   62  A    between atoms: _146  and  _147
REMARK   63  A    between atoms: _152  and  _154
REMARK   64  A    between atoms: _154  and  _155
REMARK   65  A    between atoms: _154  and  _157
REMARK   66  A    between atoms: _157  and  _158
REMARK   67  A    between atoms: _158  and  _159
REMARK   68  A    between atoms: _162  and  _164
REMARK   69  A    between atoms: _164  and  _165
REMARK   70  A    between atoms: _164  and  _167
REMARK   71  A    between atoms: _167  and  _168
REMARK   72  A    between atoms: _168  and  _169
REMARK   73  A    between atoms: _169  and  _170
REMARK   74  A    between atoms: _170  and  _171
REMARK   75  A    between atoms: _175  and  _177
REMARK   76  A    between atoms: _177  and  _178
REMARK   77  A    between atoms: _180  and  _182
REMARK   78  A    between atoms: _182  and  _183
REMARK   79  A    between atoms: _182  and  _185
REMARK   80  A    between atoms: _188  and  _190
REMARK   81  A    between atoms: _190  and  _191
REMARK   82  A    between atoms: _190  and  _193
REMARK   83  A    between atoms: _193  and  _194
REMARK   84  A    between atoms: _196  and  _198
REMARK   85  A    between atoms: _198  and  _199
REMARK   86  A    between atoms: _198  and  _201
REMARK   87  A    between atoms: _201  and  _202
REMARK   88  A    between atoms: _204  and  _206
REMARK   89  A    between atoms: _206  and  _207
REMARK   90  A    between atoms: _206  and  _209
REMARK   91  A    between atoms: _209  and  _210
REMARK   92  A    between atoms: _216  and  _218
REMARK   93  A    between atoms: _218  and  _219
REMARK   94  A    between atoms: _218  and  _221
REMARK   95  A    between atoms: _221  and  _222
REMARK   96  A    between atoms: _225  and  _227
REMARK   97  A    between atoms: _227  and  _228
REMARK   98  A    between atoms: _227  and  _230
REMARK   99  A    between atoms: _230  and  _231
REMARK  100  A    between atoms: _234  and  _236
REMARK  101  A    between atoms: _236  and  _237
REMARK  102  A    between atoms: _236  and  _239
REMARK  103  A    between atoms: _239  and  _240
REMARK  104  A    between atoms: _243  and  _245
REMARK  105  A    between atoms: _245  and  _246
REMARK  106  A    between atoms: _245  and  _248
REMARK  107  A    between atoms: _248  and  _249
REMARK  108  A    between atoms: _249  and  _250
REMARK  109  A    between atoms: _252  and  _254
REMARK  110  A    between atoms: _254  and  _255
REMARK  111  A    between atoms: _254  and  _257
REMARK  112  A    between atoms: _257  and  _258
REMARK  113  A    between atoms: _264  and  _266
REMARK  114  A    between atoms: _266  and  _267
REMARK  115  A    between atoms: _266  and  _269
REMARK  116  A    between atoms: _271  and  _273
REMARK  117  A    between atoms: _273  and  _274
REMARK  118  A    between atoms: _277  and  _279
REMARK  119  A    between atoms: _279  and  _280
REMARK  120  A    between atoms: _282  and  _284
REMARK  121  A    between atoms: _284  and  _285
REMARK  122  A    between atoms: _284  and  _287
REMARK  123  A    between atoms: _287  and  _288
REMARK  124  A    between atoms: _288  and  _289
REMARK  125  A    between atoms: _292  and  _294
REMARK  126  A    between atoms: _294  and  _295
REMARK  127  A    between atoms: _294  and  _297
REMARK  128  A    between atoms: _297  and  _298
REMARK  129  A    between atoms: _301  and  _303
REMARK  130  A    between atoms: _303  and  _304
REMARK  131  A    between atoms: _307  and  _309
REMARK  132  A    between atoms: _309  and  _310
REMARK  133  A    between atoms: _309  and  _312
REMARK  134  A    between atoms: _312  and  _313
REMARK  135  A    between atoms: _313  and  _436
REMARK  136  A    between atoms: _314  and  _316
REMARK  137  A    between atoms: _316  and  _317
REMARK  138  A    between atoms: _316  and  _319
REMARK  139  A    between atoms: _319  and  _320
REMARK  140  A    between atoms: _320  and  _321
REMARK  141  A    between atoms: _326  and  _328
REMARK  142  A    between atoms: _328  and  _329
REMARK  143  A    between atoms: _331  and  _333
REMARK  144  A    between atoms: _333  and  _334
REMARK  145  A    between atoms: _333  and  _336
REMARK  146  A    between atoms: _336  and  _337
REMARK  147  A    between atoms: _340  and  _342
REMARK  148  A    between atoms: _342  and  _343
REMARK  149  A    between atoms: _342  and  _345
REMARK  150  A    between atoms: _345  and  _346
REMARK  151  A    between atoms: _348  and  _350
REMARK  152  A    between atoms: _350  and  _351
REMARK  153  A    between atoms: _353  and  _355
REMARK  154  A    between atoms: _355  and  _356
REMARK  155  A    between atoms: _358  and  _360
REMARK  156  A    between atoms: _360  and  _361
REMARK  157  A    between atoms: _360  and  _363
REMARK  158  A    between atoms: _363  and  _364
REMARK  159  A    between atoms: _369  and  _371
REMARK  160  A    between atoms: _371  and  _372
REMARK  161  A    between atoms: _371  and  _374
REMARK  162  A    between atoms: _374  and  _375
REMARK  163  A    between atoms: _378  and  _380
REMARK  164  A    between atoms: _380  and  _381
REMARK  165  A    between atoms: _380  and  _383
REMARK  166  A    between atoms: _386  and  _388
REMARK  167  A    between atoms: _388  and  _389
REMARK  168  A    between atoms: _388  and  _391
REMARK  169  A    between atoms: _391  and  _392
REMARK  170  A    between atoms: _394  and  _396
REMARK  171  A    between atoms: _396  and  _397
REMARK  172  A    between atoms: _396  and  _399
REMARK  173  A    between atoms: _399  and  _400
REMARK  174  A    between atoms: _410  and  _412
REMARK  175  A    between atoms: _412  and  _413
REMARK  176  A    between atoms: _415  and  _417
REMARK  177  A    between atoms: _417  and  _418
REMARK  178  A    between atoms: _417  and  _420
REMARK  179  A    between atoms: _420  and  _421
REMARK  180  A    between atoms: _421  and  _422
REMARK  181  A    between atoms: _425  and  _427
REMARK  182  A    between atoms: _427  and  _428
REMARK  183  A    between atoms: _430  and  _432
REMARK  184  A    between atoms: _432  and  _433
REMARK  185  A    between atoms: _432  and  _435
REMARK  186  A    between atoms: _435  and  _436
REMARK  187  A    between atoms: _437  and  _439
REMARK  188  A    between atoms: _439  and  _440
REMARK  189  A    between atoms: _443  and  _445
REMARK  190  A    between atoms: _445  and  _446
REMARK  191  A    between atoms: _445  and  _448
REMARK  192  A    between atoms: _448  and  _449
REMARK  193  A    between atoms: _449  and  _450
REMARK  194  A    between atoms: _450  and  _451
REMARK  195  A    between atoms: _460  and  _462
REMARK  196  A    between atoms: _462  and  _463
REMARK  197  A    between atoms: _462  and  _465
REMARK  198  A    between atoms: _465  and  _466
REMARK  199  A    between atoms: _466  and  _467
REMARK  200  A    between atoms: _467  and  _468
REMARK  201  A    between atoms: _468  and  _469
REMARK  202  A    between atoms: _473  and  _475
REMARK  203  A    between atoms: _475  and  _476
REMARK  204  A    between atoms: _475  and  _478
REMARK  205  A    between atoms: _478  and  _479
REMARK  206  A    between atoms: _484  and  _485
REMARK  207  A    between atoms: _487  and  _489
REMARK  208  A    between atoms: _489  and  _490
REMARK  209  A    between atoms: _492  and  _494
REMARK  210  A    between atoms: _494  and  _495
REMARK  211  A    between atoms: _494  and  _497
REMARK  212  A    between atoms: _497  and  _498
REMARK  213  A    between atoms: _501  and  _503
REMARK  214  A    between atoms: _503  and  _504
REMARK  215  A    between atoms: _503  and  _506
REMARK  216  A    between atoms: _506  and  _507
REMARK  217  A    between atoms: _512  and  _513
REMARK  218  A    between atoms: _515  and  _517
REMARK  219  A    between atoms: _517  and  _518
REMARK  220  A    between atoms: _517  and  _520
REMARK  221  A    between atoms: _520  and  _521
REMARK                            x       y       z     vdW  Elec       q    Type
REMARK                         _______ _______ _______ _____ _____    ______ ____
ROOT
ATOM      1  CA  VAL A   1       9.901  -9.164  35.972  0.00  0.00    +0.133 C 
ENDROOT
BRANCH   1   2
ATOM      2  CB  VAL A   1      10.038  -7.711  35.432  0.00  0.00    +0.023 C 
ATOM      3  CG2 VAL A   1       8.800  -6.864  35.779  0.00  0.00    +0.002 C 
ATOM      4  CG1 VAL A   1      10.262  -7.734  33.927  0.00  0.00    +0.002 C 
ENDBRANCH   1   2
BRANCH   1   5
ATOM      5  N   VAL A   1       8.610  -9.797  35.626  0.00  0.00    -0.239 NA
ATOM      6  H   VAL A   1       7.739  -9.445  36.071  0.00  0.00    +0.142 HD
ENDBRANCH   1   5
BRANCH   1   7
ATOM      7  C   VAL A   1      10.161  -9.172  37.463  0.00  0.00    +0.224 C 
ATOM      8  O   VAL A   1       9.326  -8.753  38.268  0.00  0.00    -0.287 OA
ENDBRANCH   1   7
TORSDOF 3
REMARK  Name = ../refined-set-2016/2vwm/2vwm_pocket.pdb
REMARK  221 active torsions:
REMARK  status: ('A' for Active; 'I' for Inactive)
REMARK    1  A    between atoms: _1  and  _5
REMARK    2  A    between atoms: _5  and  _6
REMARK    3  A    between atoms: _5  and  _8
REMARK    4  A    between atoms: _8  and  _9
REMARK    5  A    between atoms: _12  and  _14
REMARK    6  A    between atoms: _14  and  _15
REMARK    7  A    between atoms: _14  and  _17
REMARK    8  A    between atoms: _20  and  _22
REMARK    9  A    between atoms: _22  and  _23
REMARK   10  A    between atoms: _22  and  _25
REMARK   11  A    between atoms: _25  and  _26
REMARK   12  A    between atoms: _31  and  _33
REMARK   13  A    between atoms: _33  and  _34
REMARK   14  A    between atoms: _33  and  _36
REMARK   15  A    between atoms: _36  and  _37
REMARK   16  A    between atoms: _37  and  _38
REMARK   17  A    between atoms: _43  and  _45
REMARK   18  A    between atoms: _45  and  _46
REMARK   19  A    between atoms: _45  and  _48
REMARK   20  A    between atoms: _48  and  _49
REMARK   21  A    between atoms: _52  and  _54
REMARK   22  A    between atoms: _54  and  _55
REMARK   23  A    between atoms: _54  and  _57
REMARK   24  A    between atoms: _57  and  _58
REMARK   25  A    between atoms: _58  and  _59
REMARK   26  A    between atoms: _59  and  _60
REMARK   27  A    between atoms: _60  and  _61
REMARK   28  A    between atoms: _65  and  _67
REMARK   29  A    between atoms: _67  and  _68
REMARK   30  A    between atoms: _67  and  _70
REMARK   31  A    between atoms: _70  and  _71
REMARK   32  A    between atoms: _71  and  _72
REMARK   33  A    between atoms: _75  and  _77
REMARK   34  A    between atoms: _77  and  _78
REMARK   35  A    between atoms: _77  and  _80
REMARK   36  A    between atoms: _80  and  _81
REMARK   37  A    between atoms: _84  and  _86
REMARK   38  A    between atoms: _86  and  _87
REMARK   39  A    between atoms: _86  and  _89
REMARK   40  A    between atoms: _89  and  _90
REMARK   41  A    between atoms: _95  and  _96
REMARK   42  A    between atoms: _98  and  _100
REMARK   43  A    between atoms: _100  and  _101
REMARK   44  A    between atoms: _100  and  _103
REMARK   45  A    between atoms: _103  and  _104
REMARK   46  A    between atoms: _107  and  _109
REMARK   47  A    between atoms: _109  and  _110
REMARK   48  A    between atoms: _109  and  _112
REMARK   49  A    between atoms: _112  and  _113
REMARK   50  A    between atoms: _116  and  _118
REMARK   51  A    between atoms: _118  and  _119
REMARK   52  A    between atoms: _118  and  _121
REMARK   53  A    between atoms: _124  and  _126
REMARK   54  A    between atoms: _126  and  _127
REMARK   55  A    between atoms: _126  and  _129
REMARK   56  A    between atoms: _129  and  _130
REMARK   57  A    between atoms: _130  and  _131
REMARK   58  A    between atoms: _131  and  _132
REMARK   59  A    between atoms: _141  and  _143
REMARK   60  A    between atoms: _143  and  _144
REMARK   61  A    between atoms: _143  and  _146
REMARK   62  A    between atoms: _146  and  _147
REMARK   63  A    between atoms: _152  and  _154
REMARK   64  A    between atoms: _154  and  _155
REMARK   65  A    between atoms: _154  and  _157
REMARK   66  A    between atoms: _157  and  _158
REMARK   67  A    between atoms: _158  and  _159
REMARK   68  A    between atoms: _162  and  _164
REMARK   69  A    between atoms: _164  and  _165
REMARK   70  A    between atoms: _164  and  _167
REMARK   71  A    between atoms: _167  and  _168
REMARK   72  A    between atoms: _168  and  _169
REMARK   73  A    between atoms: _169  and  _170
REMARK   74  A    between atoms: _170  and  _171
REMARK   75  A    between atoms: _175  and  _177
REMARK   76  A    between atoms: _177  and  _178
REMARK   77  A    between atoms: _180  and  _182
REMARK   78  A    between atoms: _182  and  _183
REMARK   79  A    between atoms: _182  and  _185
REMARK   80  A    between atoms: _188  and  _190
REMARK   81  A    between atoms: _190  and  _191
REMARK   82  A    between atoms: _190  and  _193
REMARK   83  A    between atoms: _193  and  _194
REMARK   84  A    between atoms: _196  and  _198
REMARK   85  A    between atoms: _198  and  _199
REMARK   86  A    between atoms: _198  and  _201
REMARK   87  A    between atoms: _201  and  _202
REMARK   88  A    between atoms: _204  and  _206
REMARK   89  A    between atoms: _206  and  _207
REMARK   90  A    between atoms: _206  and  _209
REMARK   91  A    between atoms: _209  and  _210
REMARK   92  A    between atoms: _216  and  _218
REMARK   93  A    between atoms: _218  and  _219
REMARK   94  A    between atoms: _218  and  _221
REMARK   95  A    between atoms: _221  and  _222
REMARK   96  A    between atoms: _225  and  _227
REMARK   97  A    between atoms: _227  and  _228
REMARK   98  A    between atoms: _227  and  _230
REMARK   99  A    between atoms: _230  and  _231
REMARK  100  A    between atoms: _234  and  _236
REMARK  101  A    between atoms: _236  and  _237
REMARK  102  A    between atoms: _236  and  _239
REMARK  103  A    between atoms: _239  and  _240
REMARK  104  A    between atoms: _243  and  _245
REMARK  105  A    between atoms: _245  and  _246
REMARK  106  A    between atoms: _245  and  _248
REMARK  107  A    between atoms: _248  and  _249
REMARK  108  A    between atoms: _249  and  _250
REMARK  109  A    between atoms: _252  and  _254
REMARK  110  A    between atoms: _254  and  _255
REMARK  111  A    between atoms: _254  and  _257
REMARK  112  A    between atoms: _257  and  _258
REMARK  113  A    between atoms: _264  and  _266
REMARK  114  A    between atoms: _266  and  _267
REMARK  115  A    between atoms: _266  and  _269
REMARK  116  A    between atoms: _271  and  _273
REMARK  117  A    between atoms: _273  and  _274
REMARK  118  A    between atoms: _277  and  _279
REMARK  119  A    between atoms: _279  and  _280
REMARK  120  A    between atoms: _282  and  _284
REMARK  121  A    between atoms: _284  and  _285
REMARK  122  A    between atoms: _284  and  _287
REMARK  123  A    between atoms: _287  and  _288
REMARK  124  A    between atoms: _288  and  _289
REMARK  125  A    between atoms: _292  and  _294
REMARK  126  A    between atoms: _294  and  _295
REMARK  127  A    between atoms: _294  and  _297
REMARK  128  A    between atoms: _297  and  _298
REMARK  129  A    between atoms: _301  and  _303
REMARK  130  A    between atoms: _303  and  _304
REMARK  131  A    between atoms: _307  and  _309
REMARK  132  A    between atoms: _309  and  _310
REMARK  133  A    between atoms: _309  and  _312
REMARK  134  A    between atoms: _312  and  _313
REMARK  135  A    between atoms: _313  and  _436
REMARK  136  A    between atoms: _314  and  _316
REMARK  137  A    between atoms: _316  and  _317
REMARK  138  A    between atoms: _316  and  _319
REMARK  139  A    between atoms: _319  and  _320
REMARK  140  A    between atoms: _320  and  _321
REMARK  141  A    between atoms: _326  and  _328
REMARK  142  A    between atoms: _328  and  _329
REMARK  143  A    between atoms: _331  and  _333
REMARK  144  A    between atoms: _333  and  _334
REMARK  145  A    between atoms: _333  and  _336
REMARK  146  A    between atoms: _336  and  _337
REMARK  147  A    between atoms: _340  and  _342
REMARK  148  A    between atoms: _342  and  _343
REMARK  149  A    between atoms: _342  and  _345
REMARK  150  A    between atoms: _345  and  _346
REMARK  151  A    between atoms: _348  and  _350
REMARK  152  A    between atoms: _350  and  _351
REMARK  153  A    between atoms: _353  and  _355
REMARK  154  A    between atoms: _355  and  _356
REMARK  155  A    between atoms: _358  and  _360
REMARK  156  A    between atoms: _360  and  _361
REMARK  157  A    between atoms: _360  and  _363
REMARK  158  A    between atoms: _363  and  _364
REMARK  159  A    between atoms: _369  and  _371
REMARK  160  A    between atoms: _371  and  _372
REMARK  161  A    between atoms: _371  and  _374
REMARK  162  A    between atoms: _374  and  _375
REMARK  163  A    between atoms: _378  and  _380
REMARK  164  A    between atoms: _380  and  _381
REMARK  165  A    between atoms: _380  and  _383
REMARK  166  A    between atoms: _386  and  _388
REMARK  167  A    between atoms: _388  and  _389
REMARK  168  A    between atoms: _388  and  _391
REMARK  169  A    between atoms: _391  and  _392
REMARK  170  A    between atoms: _394  and  _396
REMARK  171  A    between atoms: _396  and  _397
REMARK  172  A    between atoms: _396  and  _399
REMARK  173  A    between atoms: _399  and  _400
REMARK  174  A    between atoms: _410  and  _412
REMARK  175  A    between atoms: _412  and  _413
REMARK  176  A    between atoms: _415  and  _417
REMARK  177  A    between atoms: _417  and  _418
REMARK  178  A    between atoms: _417  and  _420
REMARK  179  A    between atoms: _420  and  _421
REMARK  180  A    between atoms: _421  and  _422
REMARK  181  A    between atoms: _425  and  _427
REMARK  182  A    between atoms: _427  and  _428
REMARK  183  A    between atoms: _430  and  _432
REMARK  184  A    between atoms: _432  and  _433
REMARK  185  A    between atoms: _432  and  _435
REMARK  186  A    between atoms: _435  and  _436
REMARK  187  A    between atoms: _437  and  _439
REMARK  188  A    between atoms: _439  and  _440
REMARK  189  A    between atoms: _443  and  _445
REMARK  190  A    between atoms: _445  and  _446
REMARK  191  A    between atoms: _445  and  _448
REMARK  192  A    between atoms: _448  and  _449
REMARK  193  A    between atoms: _449  and  _450
REMARK  194  A    between atoms: _450  and  _451
REMARK  195  A    between atoms: _460  and  _462
REMARK  196  A    between atoms: _462  and  _463
REMARK  197  A    between atoms: _462  and  _465
REMARK  198  A    between atoms: _465  and  _466
REMARK  199  A    between atoms: _466  and  _467
REMARK  200  A    between atoms: _467  and  _468
REMARK  201  A    between atoms: _468  and  _469
REMARK  202  A    between atoms: _473  and  _475
REMARK  203  A    between atoms: _475  and  _476
REMARK  204  A    between atoms: _475  and  _478
REMARK  205  A    between atoms: _478  and  _479
REMARK  206  A    between atoms: _484  and  _485
REMARK  207  A    between atoms: _487  and  _489
REMARK  208  A    between atoms: _489  and  _490
REMARK  209  A    between atoms: _492  and  _494
REMARK  210  A    between atoms: _494  and  _495
REMARK  211  A    between atoms: _494  and  _497
REMARK  212  A    between atoms: _497  and  _498
REMARK  213  A    between atoms: _501  and  _503
REMARK  214  A    between atoms: _503  and  _504
REMARK  215  A    between atoms: _503  and  _506
REMARK  216  A    between atoms: _506  and  _507
REMARK  217  A    between atoms: _512  and  _513
REMARK  218  A    between atoms: _515  and  _517
REMARK  219  A    between atoms: _517  and  _518
REMARK  220  A    between atoms: _517  and  _520
REMARK  221  A    between atoms: _520  and  _521
REMARK                            x       y       z     vdW  Elec       q    Type
REMARK                         _______ _______ _______ _____ _____    ______ ____
ROOT
ATOM      1  C   PHE A   3      21.030   7.655  36.952  0.00  0.00    +0.241 C 
ATOM      2  N   ILE A   4      20.681   8.771  37.567  0.00  0.00    -0.297 N 
ATOM      3  H   ILE A   4      20.718   9.666  37.039  0.00  0.00    +0.150 HD
ATOM      4  O   PHE A   3      20.954   6.539  37.475  0.00  0.00    -0.273 OA
ENDROOT
BRANCH   2   5
ATOM      5  CA  ILE A   4      20.248   8.793  38.951  0.00  0.00    +0.149 C 
BRANCH   5   6
ATOM      6  C   ILE A   4      18.880   8.137  39.107  0.00  0.00    +0.241 C 
ATOM      7  N   ILE A   5      18.827   7.115  39.947  0.00  0.00    -0.297 N 
ATOM      8  H   ILE A   5      19.707   6.758  40.371  0.00  0.00    +0.150 HD
ATOM      9  O   ILE A   4      17.896   8.576  38.527  0.00  0.00    -0.273 OA
BRANCH   7  10
ATOM     10  CA  ILE A   5      17.575   6.486  40.287  0.00  0.00    +0.149 C 
BRANCH  10  11
ATOM     11  C   ILE A   5      17.006   7.147  41.533  0.00  0.00    +0.241 C 
ATOM     12  O   ILE A   5      17.598   7.062  42.606  0.00  0.00    -0.273 OA
ATOM     13  N   THR A   6      15.845   7.777  41.428  0.00  0.00    -0.296 N 
ATOM     14  H   THR A   6      15.328   7.787  40.526  0.00  0.00    +0.150 HD
BRANCH  13  15
ATOM     15  CA  THR A   6      15.306   8.455  42.598  0.00  0.00    +0.164 C 
BRANCH  15  16
ATOM     16  CB  THR A   6      14.514   9.673  42.183  0.00  0.00    +0.136 C 
ATOM     17  CG2 THR A   6      15.367  10.538  41.242  0.00  0.00    +0.034 C 
BRANCH  16  18
ATOM     18  OG1 THR A   6      13.316   9.245  41.511  0.00  0.00    -0.382 OA
ATOM     19  HG1 THR A   6      12.792  10.039  41.236  0.00  0.00    +0.210 HD
ENDBRANCH  16  18
ENDBRANCH  15  16
BRANCH  15  20
ATOM     20  C   THR A   6      14.405   7.528  43.392  0.00  0.00    +0.229 C 
ATOM     21  O   THR A   6      14.116   6.438  42.939  0.00  0.00    -0.286 OA
ENDBRANCH  15  20
ENDBRANCH  13  15
ENDBRANCH  10  11
BRANCH  10  22
ATOM     22  CB  ILE A   5      17.785   5.008  40.644  0.00  0.00    +0.027 C 
ATOM     23  CG2 ILE A   5      16.425   4.360  40.905  0.00  0.00    +0.002 C 
BRANCH  22  24
ATOM     24  CG1 ILE A   5      18.574   4.283  39.554  0.00  0.00    +0.002 C 
ATOM     25  CD1 ILE A   5      17.957   4.395  38.119  0.00  0.00    +0.000 C 
ENDBRANCH  22  24
ENDBRANCH  10  22
ENDBRANCH   7  10
ENDBRANCH   5   6
BRANCH   5  26
ATOM     26  CB  ILE A   4      20.169  10.236  39.468  0.00  0.00    +0.027 C 
ATOM     27  CG2 ILE A   4      19.449  10.319  40.811  0.00  0.00    +0.002 C 
BRANCH  26  28
ATOM     28  CG1 ILE A   4      21.579  10.825  39.611  0.00  0.00    +0.002 C 
ATOM     29  CD1 ILE A   4      21.569  12.245  40.134  0.00  0.00    +0.000 C 
ENDBRANCH  26  28
ENDBRANCH   5  26
ENDBRANCH   2   5
BRANCH   1  30
ATOM     30  CA  PHE A   3      21.544   7.826  35.523  0.00  0.00    +0.153 C 
BRANCH  30  32
ATOM     31  C   SER A   2      23.550   6.808  34.722  0.00  0.00    +0.243 C 
ATOM     32  N   PHE A   3      22.300   6.663  35.122  0.00  0.00    -0.297 N 
ATOM     33  H   PHE A   3      21.864   5.719  35.148  0.00  0.00    +0.150 HD
ATOM     34  O   SER A   2      24.079   7.913  34.597  0.00  0.00    -0.273 OA
BRANCH  31  35
ATOM     35  CA  SER A   2      24.318   5.541  34.432  0.00  0.00    +0.178 C 
BRANCH  35  38
ATOM     36  C   SER A   1      23.682   3.829  36.074  0.00  0.00    +0.241 C 
ATOM     37  O   SER A   1      24.447   4.249  36.938  0.00  0.00    -0.274 OA
ATOM     38  N   SER A   2      23.581   4.361  34.860  0.00  0.00    -0.295 N 
ATOM     39  H   SER A   2      22.939   3.909  34.178  0.00  0.00    +0.150 HD
BRANCH  36  40
ATOM     40  CA  SER A   1      22.724   2.659  36.343  0.00  0.00    +0.174 C 
BRANCH  40  41
ATOM     41  N   SER A   1      23.240   1.557  37.124  0.00  0.00    -0.236 NA
ATOM     42  H   SER A   1      23.306   1.644  38.158  0.00  0.00    +0.142 HD
ENDBRANCH  40  41
BRANCH  40  43
ATOM     43  CB  SER A   1      21.457   3.193  36.971  0.00  0.00    +0.163 C 
BRANCH  43  44
ATOM     44  OG  SER A   1      20.902   4.171  36.116  0.00  0.00    -0.380 OA
ATOM     45  H   SER A   1      20.695   3.762  35.239  0.00  0.00    +0.211 HD
ENDBRANCH  43  44
ENDBRANCH  40  43
ENDBRANCH  36  40
ENDBRANCH  35  38
BRANCH  35  46
ATOM     46  CB  SER A   2      24.604   5.454  32.941  0.00  0.00    +0.166 C 
BRANCH  46  47
ATOM     47  OG  SER A   2      25.301   4.264  32.701  0.00  0.00    -0.380 OA
ATOM     48  H   SER A   2      26.149   4.271  33.212  0.00  0.00    +0.211 HD
ENDBRANCH  46  47
ENDBRANCH  35  46
ENDBRANCH  31  35
ENDBRANCH  30  32
BRANCH  30  49
ATOM     49  CB  PHE A   3      20.379   8.084  34.561  0.00  0.00    +0.055 C 
BRANCH  49  50
ATOM     50  CG  PHE A   3      20.794   8.215  33.110  0.00  0.00    -0.020 A 
ATOM     51  CD2 PHE A   3      21.060   9.453  32.563  0.00  0.00    -0.004 A 
ATOM     52  CE2 PHE A   3      21.440   9.578  31.241  0.00  0.00    -0.000 A 
ATOM     53  CZ  PHE A   3      21.557   8.462  30.452  0.00  0.00    -0.000 A 
ATOM     54  CE1 PHE A   3      21.292   7.219  30.988  0.00  0.00    -0.000 A 
ATOM     55  CD1 PHE A   3      20.924   7.106  32.315  0.00  0.00    -0.004 A 
ENDBRANCH  49  50
ENDBRANCH  30  49
ENDBRANCH   1  30
TORSDOF 24
REMARK  Name = ../refined-set-2016/2vwm/2vwm_pocket.pdb
REMARK  221 active torsions:
REMARK  status: ('A' for Active; 'I' for Inactive)
REMARK    1  A    between atoms: _1  and  _5
REMARK    2  A    between atoms: _5  and  _6
REMARK    3  A    between atoms: _5  and  _8
REMARK    4  A    between atoms: _8  and  _9
REMARK    5  A    between atoms: _12  and  _14
REMARK    6  A    between atoms: _14  and  _15
REMARK    7  A    between atoms: _14  and  _17
REMARK    8  A    between atoms: _20  and  _22
REMARK    9  A    between atoms: _22  and  _23
REMARK   10  A    between atoms: _22  and  _25
REMARK   11  A    between atoms: _25  and  _26
REMARK   12  A    between atoms: _31  and  _33
REMARK   13  A    between atoms: _33  and  _34
REMARK   14  A    between atoms: _33  and  _36
REMARK   15  A    between atoms: _36  and  _37
REMARK   16  A    between atoms: _37  and  _38
REMARK   17  A    between atoms: _43  and  _45
REMARK   18  A    between atoms: _45  and  _46
REMARK   19  A    between atoms: _45  and  _48
REMARK   20  A    between atoms: _48  and  _49
REMARK   21  A    between atoms: _52  and  _54
REMARK   22  A    between atoms: _54  and  _55
REMARK   23  A    between atoms: _54  and  _57
REMARK   24  A    between atoms: _57  and  _58
REMARK   25  A    between atoms: _58  and  _59
REMARK   26  A    between atoms: _59  and  _60
REMARK   27  A    between atoms: _60  and  _61
REMARK   28  A    between atoms: _65  and  _67
REMARK   29  A    between atoms: _67  and  _68
REMARK   30  A    between atoms: _67  and  _70
REMARK   31  A    between atoms: _70  and  _71
REMARK   32  A    between atoms: _71  and  _72
REMARK   33  A    between atoms: _75  and  _77
REMARK   34  A    between atoms: _77  and  _78
REMARK   35  A    between atoms: _77  and  _80
REMARK   36  A    between atoms: _80  and  _81
REMARK   37  A    between atoms: _84  and  _86
REMARK   38  A    between atoms: _86  and  _87
REMARK   39  A    between atoms: _86  and  _89
REMARK   40  A    between atoms: _89  and  _90
REMARK   41  A    between atoms: _95  and  _96
REMARK   42  A    between atoms: _98  and  _100
REMARK   43  A    between atoms: _100  and  _101
REMARK   44  A    between atoms: _100  and  _103
REMARK   45  A    between atoms: _103  and  _104
REMARK   46  A    between atoms: _107  and  _109
REMARK   47  A    between atoms: _109  and  _110
REMARK   48  A    between atoms: _109  and  _112
REMARK   49  A    between atoms: _112  and  _113
REMARK   50  A    between atoms: _116  and  _118
REMARK   51  A    between atoms: _118  and  _119
REMARK   52  A    between atoms: _118  and  _121
REMARK   53  A    between atoms: _124  and  _126
REMARK   54  A    between atoms: _126  and  _127
REMARK   55  A    between atoms: _126  and  _129
REMARK   56  A    between atoms: _129  and  _130
REMARK   57  A    between atoms: _130  and  _131
REMARK   58  A    between atoms: _131  and  _132
REMARK   59  A    between atoms: _141  and  _143
REMARK   60  A    between atoms: _143  and  _144
REMARK   61  A    between atoms: _143  and  _146
REMARK   62  A    between atoms: _146  and  _147
REMARK   63  A    between atoms: _152  and  _154
REMARK   64  A    between atoms: _154  and  _155
REMARK   65  A    between atoms: _154  and  _157
REMARK   66  A    between atoms: _157  and  _158
REMARK   67  A    between atoms: _158  and  _159
REMARK   68  A    between atoms: _162  and  _164
REMARK   69  A    between atoms: _164  and  _165
REMARK   70  A    between atoms: _164  and  _167
REMARK   71  A    between atoms: _167  and  _168
REMARK   72  A    between atoms: _168  and  _169
REMARK   73  A    between atoms: _169  and  _170
REMARK   74  A    between atoms: _170  and  _171
REMARK   75  A    between atoms: _175  and  _177
REMARK   76  A    between atoms: _177  and  _178
REMARK   77  A    between atoms: _180  and  _182
REMARK   78  A    between atoms: _182  and  _183
REMARK   79  A    between atoms: _182  and  _185
REMARK   80  A    between atoms: _188  and  _190
REMARK   81  A    between atoms: _190  and  _191
REMARK   82  A    between atoms: _190  and  _193
REMARK   83  A    between atoms: _193  and  _194
REMARK   84  A    between atoms: _196  and  _198
REMARK   85  A    between atoms: _198  and  _199
REMARK   86  A    between atoms: _198  and  _201
REMARK   87  A    between atoms: _201  and  _202
REMARK   88  A    between atoms: _204  and  _206
REMARK   89  A    between atoms: _206  and  _207
REMARK   90  A    between atoms: _206  and  _209
REMARK   91  A    between atoms: _209  and  _210
REMARK   92  A    between atoms: _216  and  _218
REMARK   93  A    between atoms: _218  and  _219
REMARK   94  A    between atoms: _218  and  _221
REMARK   95  A    between atoms: _221  and  _222
REMARK   96  A    between atoms: _225  and  _227
REMARK   97  A    between atoms: _227  and  _228
REMARK   98  A    between atoms: _227  and  _230
REMARK   99  A    between atoms: _230  and  _231
REMARK  100  A    between atoms: _234  and  _236
REMARK  101  A    between atoms: _236  and  _237
REMARK  102  A    between atoms: _236  and  _239
REMARK  103  A    between atoms: _239  and  _240
REMARK  104  A    between atoms: _243  and  _245
REMARK  105  A    between atoms: _245  and  _246
REMARK  106  A    between atoms: _245  and  _248
REMARK  107  A    between atoms: _248  and  _249
REMARK  108  A    between atoms: _249  and  _250
REMARK  109  A    between atoms: _252  and  _254
REMARK  110  A    between atoms: _254  and  _255
REMARK  111  A    between atoms: _254  and  _257
REMARK  112  A    between atoms: _257  and  _258
REMARK  113  A    between atoms: _264  and  _266
REMARK  114  A    between atoms: _266  and  _267
REMARK  115  A    between atoms: _266  and  _269
REMARK  116  A    between atoms: _271  and  _273
REMARK  117  A    between atoms: _273  and  _274
REMARK  118  A    between atoms: _277  and  _279
REMARK  119  A    between atoms: _279  and  _280
REMARK  120  A    between atoms: _282  and  _284
REMARK  121  A    between atoms: _284  and  _285
REMARK  122  A    between atoms: _284  and  _287
REMARK  123  A    between atoms: _287  and  _288
REMARK  124  A    between atoms: _288  and  _289
REMARK  125  A    between atoms: _292  and  _294
REMARK  126  A    between atoms: _294  and  _295
REMARK  127  A    between atoms: _294  and  _297
REMARK  128  A    between atoms: _297  and  _298
REMARK  129  A    between atoms: _301  and  _303
REMARK  130  A    between atoms: _303  and  _304
REMARK  131  A    between atoms: _307  and  _309
REMARK  132  A    between atoms: _309  and  _310
REMARK  133  A    between atoms: _309  and  _312
REMARK  134  A    between atoms: _312  and  _313
REMARK  135  A    between atoms: _313  and  _436
REMARK  136  A    between atoms: _314  and  _316
REMARK  137  A    between atoms: _316  and  _317
REMARK  138  A    between atoms: _316  and  _319
REMARK  139  A    between atoms: _319  and  _320
REMARK  140  A    between atoms: _320  and  _321
REMARK  141  A    between atoms: _326  and  _328
REMARK  142  A    between atoms: _328  and  _329
REMARK  143  A    between atoms: _331  and  _333
REMARK  144  A    between atoms: _333  and  _334
REMARK  145  A    between atoms: _333  and  _336
REMARK  146  A    between atoms: _336  and  _337
REMARK  147  A    between atoms: _340  and  _342
REMARK  148  A    between atoms: _342  and  _343
REMARK  149  A    between atoms: _342  and  _345
REMARK  150  A    between atoms: _345  and  _346
REMARK  151  A    between atoms: _348  and  _350
REMARK  152  A    between atoms: _350  and  _351
REMARK  153  A    between atoms: _353  and  _355
REMARK  154  A    between atoms: _355  and  _356
REMARK  155  A    between atoms: _358  and  _360
REMARK  156  A    between atoms: _360  and  _361
REMARK  157  A    between atoms: _360  and  _363
REMARK  158  A    between atoms: _363  and  _364
REMARK  159  A    between atoms: _369  and  _371
REMARK  160  A    between atoms: _371  and  _372
REMARK  161  A    between atoms: _371  and  _374
REMARK  162  A    between atoms: _374  and  _375
REMARK  163  A    between atoms: _378  and  _380
REMARK  164  A    between atoms: _380  and  _381
REMARK  165  A    between atoms: _380  and  _383
REMARK  166  A    between atoms: _386  and  _388
REMARK  167  A    between atoms: _388  and  _389
REMARK  168  A    between atoms: _388  and  _391
REMARK  169  A    between atoms: _391  and  _392
REMARK  170  A    between atoms: _394  and  _396
REMARK  171  A    between atoms: _396  and  _397
REMARK  172  A    between atoms: _396  and  _399
REMARK  173  A    between atoms: _399  and  _400
REMARK  174  A    between atoms: _410  and  _412
REMARK  175  A    between atoms: _412  and  _413
REMARK  176  A    between atoms: _415  and  _417
REMARK  177  A    between atoms: _417  and  _418
REMARK  178  A    between atoms: _417  and  _420
REMARK  179  A    between atoms: _420  and  _421
REMARK  180  A    between atoms: _421  and  _422
REMARK  181  A    between atoms: _425  and  _427
REMARK  182  A    between atoms: _427  and  _428
REMARK  183  A    between atoms: _430  and  _432
REMARK  184  A    between atoms: _432  and  _433
REMARK  185  A    between atoms: _432  and  _435
REMARK  186  A    between atoms: _435  and  _436
REMARK  187  A    between atoms: _437  and  _439
REMARK  188  A    between atoms: _439  and  _440
REMARK  189  A    between atoms: _443  and  _445
REMARK  190  A    between atoms: _445  and  _446
REMARK  191  A    between atoms: _445  and  _448
REMARK  192  A    between atoms: _448  and  _449
REMARK  193  A    between atoms: _449  and  _450
REMARK  194  A    between atoms: _450  and  _451
REMARK  195  A    between atoms: _460  and  _462
REMARK  196  A    between atoms: _462  and  _463
REMARK  197  A    between atoms: _462  and  _465
REMARK  198  A    between atoms: _465  and  _466
REMARK  199  A    between atoms: _466  and  _467
REMARK  200  A    between atoms: _467  and  _468
REMARK  201  A    between atoms: _468  and  _469
REMARK  202  A    between atoms: _473  and  _475
REMARK  203  A    between atoms: _475  and  _476
REMARK  204  A    between atoms: _475  and  _478
REMARK  205  A    between atoms: _478  and  _479
REMARK  206  A    between atoms: _484  and  _485
REMARK  207  A    between atoms: _487  and  _489
REMARK  208  A    between atoms: _489  and  _490
REMARK  209  A    between atoms: _492  and  _494
REMARK  210  A    between atoms: _494  and  _495
REMARK  211  A    between atoms: _494  and  _497
REMARK  212  A    between atoms: _497  and  _498
REMARK  213  A    between atoms: _501  and  _503
REMARK  214  A    between atoms: _503  and  _504
REMARK  215  A    between atoms: _503  and  _506
REMARK  216  A    between atoms: _506  and  _507
REMARK  217  A    between atoms: _512  and  _513
REMARK  218  A    between atoms: _515  and  _517
REMARK  219  A    between atoms: _517  and  _518
REMARK  220  A    between atoms: _517  and  _520
REMARK  221  A    between atoms: _520  and  _521
REMARK                            x       y       z     vdW  Elec       q    Type
REMARK                         _______ _______ _______ _____ _____    ______ ____
ROOT
ATOM      1  C   PHE A   2      12.695   0.499  39.867  0.00  0.00    +0.241 C 
ATOM      2  N   CYS A   3      13.478  -0.534  40.108  0.00  0.00    -0.296 N 
ATOM      3  H   CYS A   3      13.719  -0.786  41.088  0.00  0.00    +0.150 HD
ATOM      4  O   PHE A   2      12.297   0.812  38.728  0.00  0.00    -0.273 OA
ENDROOT
BRANCH   2   5
ATOM      5  CA  CYS A   3      13.997  -1.309  39.024  0.00  0.00    +0.160 C 
BRANCH   5   6
ATOM      6  C   CYS A   3      13.428  -2.733  39.050  0.00  0.00    +0.242 C 
ATOM      7  O   CYS A   3      13.182  -3.310  40.122  0.00  0.00    -0.273 OA
ATOM      8  N   ALA A   4      13.179  -3.277  37.863  0.00  0.00    -0.297 N 
ATOM      9  H   ALA A   4      13.361  -2.729  36.998  0.00  0.00    +0.150 HD
BRANCH   8  10
ATOM     10  CA  ALA A   4      12.659  -4.621  37.760  0.00  0.00    +0.149 C 
ATOM     11  CB  ALA A   4      11.158  -4.618  37.672  0.00  0.00    +0.031 C 
BRANCH  10  12
ATOM     12  C   ALA A   4      13.238  -5.184  36.497  0.00  0.00    +0.241 C 
ATOM     13  N   GLY A   5      13.398  -6.491  36.463  0.00  0.00    -0.296 N 
ATOM     14  H   GLY A   5      13.120  -7.080  37.274  0.00  0.00    +0.150 HD
ATOM     15  O   ALA A   4      13.547  -4.441  35.570  0.00  0.00    -0.273 OA
BRANCH  13  16
ATOM     16  CA  GLY A   5      13.967  -7.091  35.279  0.00  0.00    +0.163 C 
BRANCH  16  17
ATOM     17  C   GLY A   5      15.130  -7.991  35.609  0.00  0.00    +0.229 C 
ATOM     18  O   GLY A   5      15.236  -8.515  36.729  0.00  0.00    -0.286 OA
ENDBRANCH  16  17
ENDBRANCH  13  16
ENDBRANCH  10  12
ENDBRANCH   8  10
ENDBRANCH   5   6
BRANCH   5  19
ATOM     19  CB  CYS A   3      15.509  -1.290  39.127  0.00  0.00    +0.098 C 
ATOM     20  SG  CYS A   3      16.160   0.395  39.468  0.00  0.00    -0.080 S 
ENDBRANCH   5  19
ENDBRANCH   2   5
BRANCH   1  21
ATOM     21  CA  PHE A   2      12.247   1.262  41.087  0.00  0.00    +0.153 C 
BRANCH  21  24
ATOM     22  C   MET A   1      11.952   3.655  41.354  0.00  0.00    +0.238 C 
ATOM     23  O   MET A   1      12.454   3.648  42.466  0.00  0.00    -0.274 OA
ATOM     24  N   PHE A   2      11.693   2.543  40.665  0.00  0.00    -0.297 N 
ATOM     25  H   PHE A   2      11.090   2.590  39.819  0.00  0.00    +0.150 HD
BRANCH  22  26
ATOM     26  CA  MET A   1      11.613   4.973  40.695  0.00  0.00    +0.146 C 
BRANCH  26  27
ATOM     27  N   MET A   1      11.351   6.021  41.695  0.00  0.00    -0.238 NA
ATOM     28  H   MET A   1      12.100   6.232  42.385  0.00  0.00    +0.142 HD
ENDBRANCH  26  27
BRANCH  26  29
ATOM     29  CB  MET A   1      12.815   5.344  39.838  0.00  0.00    +0.038 C 
BRANCH  29  30
ATOM     30  CG  MET A   1      12.660   6.676  39.117  0.00  0.00    +0.060 C 
BRANCH  30  31
ATOM     31  SD  MET A   1      14.248   7.164  38.525  0.00  0.00    -0.139 S 
ATOM     32  CE  MET A   1      13.900   8.940  38.251  0.00  0.00    +0.069 C 
ENDBRANCH  30  31
ENDBRANCH  29  30
ENDBRANCH  26  29
ENDBRANCH  22  26
ENDBRANCH  21  24
BRANCH  21  33
ATOM     33  CB  PHE A   2      11.297   0.440  41.992  0.00  0.00    +0.055 C 
BRANCH  33  34
ATOM     34  CG  PHE A   2      10.081  -0.115  41.294  0.00  0.00    -0.020 A 
ATOM     35  CD2 PHE A   2       8.945   0.663  41.151  0.00  0.00    -0.004 A 
ATOM     36  CE2 PHE A   2       7.815   0.184  40.514  0.00  0.00    -0.000 A 
ATOM     37  CZ  PHE A   2       7.791  -1.128  40.010  0.00  0.00    -0.000 A 
ATOM     38  CE1 PHE A   2       8.943  -1.930  40.118  0.00  0.00    -0.000 A 
ATOM     39  CD1 PHE A   2      10.087  -1.414  40.772  0.00  0.00    -0.004 A 
ENDBRANCH  33  34
ENDBRANCH  21  33
ENDBRANCH   1  21
TORSDOF 16
REMARK  Name = ../refined-set-2016/2vwm/2vwm_pocket.pdb
REMARK  221 active torsions:
REMARK  status: ('A' for Active; 'I' for Inactive)
REMARK    1  A    between atoms: _1  and  _5
REMARK    2  A    between atoms: _5  and  _6
REMARK    3  A    between atoms: _5  and  _8
REMARK    4  A    between atoms: _8  and  _9
REMARK    5  A    between atoms: _12  and  _14
REMARK    6  A    between atoms: _14  and  _15
REMARK    7  A    between atoms: _14  and  _17
REMARK    8  A    between atoms: _20  and  _22
REMARK    9  A    between atoms: _22  and  _23
REMARK   10  A    between atoms: _22  and  _25
REMARK   11  A    between atoms: _25  and  _26
REMARK   12  A    between atoms: _31  and  _33
REMARK   13  A    between atoms: _33  and  _34
REMARK   14  A    between atoms: _33  and  _36
REMARK   15  A    between atoms: _36  and  _37
REMARK   16  A    between atoms: _37  and  _38
REMARK   17  A    between atoms: _43  and  _45
REMARK   18  A    between atoms: _45  and  _46
REMARK   19  A    between atoms: _45  and  _48
REMARK   20  A    between atoms: _48  and  _49
REMARK   21  A    between atoms: _52  and  _54
REMARK   22  A    between atoms: _54  and  _55
REMARK   23  A    between atoms: _54  and  _57
REMARK   24  A    between atoms: _57  and  _58
REMARK   25  A    between atoms: _58  and  _59
REMARK   26  A    between atoms: _59  and  _60
REMARK   27  A    between atoms: _60  and  _61
REMARK   28  A    between atoms: _65  and  _67
REMARK   29  A    between atoms: _67  and  _68
REMARK   30  A    between atoms: _67  and  _70
REMARK   31  A    between atoms: _70  and  _71
REMARK   32  A    between atoms: _71  and  _72
REMARK   33  A    between atoms: _75  and  _77
REMARK   34  A    between atoms: _77  and  _78
REMARK   35  A    between atoms: _77  and  _80
REMARK   36  A    between atoms: _80  and  _81
REMARK   37  A    between atoms: _84  and  _86
REMARK   38  A    between atoms: _86  and  _87
REMARK   39  A    between atoms: _86  and  _89
REMARK   40  A    between atoms: _89  and  _90
REMARK   41  A    between atoms: _95  and  _96
REMARK   42  A    between atoms: _98  and  _100
REMARK   43  A    between atoms: _100  and  _101
REMARK   44  A    between atoms: _100  and  _103
REMARK   45  A    between atoms: _103  and  _104
REMARK   46  A    between atoms: _107  and  _109
REMARK   47  A    between atoms: _109  and  _110
REMARK   48  A    between atoms: _109  and  _112
REMARK   49  A    between atoms: _112  and  _113
REMARK   50  A    between atoms: _116  and  _118
REMARK   51  A    between atoms: _118  and  _119
REMARK   52  A    between atoms: _118  and  _121
REMARK   53  A    between atoms: _124  and  _126
REMARK   54  A    between atoms: _126  and  _127
REMARK   55  A    between atoms: _126  and  _129
REMARK   56  A    between atoms: _129  and  _130
REMARK   57  A    between atoms: _130  and  _131
REMARK   58  A    between atoms: _131  and  _132
REMARK   59  A    between atoms: _141  and  _143
REMARK   60  A    between atoms: _143  and  _144
REMARK   61  A    between atoms: _143  and  _146
REMARK   62  A    between atoms: _146  and  _147
REMARK   63  A    between atoms: _152  and  _154
REMARK   64  A    between atoms: _154  and  _155
REMARK   65  A    between atoms: _154  and  _157
REMARK   66  A    between atoms: _157  and  _158
REMARK   67  A    between atoms: _158  and  _159
REMARK   68  A    between atoms: _162  and  _164
REMARK   69  A    between atoms: _164  and  _165
REMARK   70  A    between atoms: _164  and  _167
REMARK   71  A    between atoms: _167  and  _168
REMARK   72  A    between atoms: _168  and  _169
REMARK   73  A    between atoms: _169  and  _170
REMARK   74  A    between atoms: _170  and  _171
REMARK   75  A    between atoms: _175  and  _177
REMARK   76  A    between atoms: _177  and  _178
REMARK   77  A    between atoms: _180  and  _182
REMARK   78  A    between atoms: _182  and  _183
REMARK   79  A    between atoms: _182  and  _185
REMARK   80  A    between atoms: _188  and  _190
REMARK   81  A    between atoms: _190  and  _191
REMARK   82  A    between atoms: _190  and  _193
REMARK   83  A    between atoms: _193  and  _194
REMARK   84  A    between atoms: _196  and  _198
REMARK   85  A    between atoms: _198  and  _199
REMARK   86  A    between atoms: _198  and  _201
REMARK   87  A    between atoms: _201  and  _202
REMARK   88  A    between atoms: _204  and  _206
REMARK   89  A    between atoms: _206  and  _207
REMARK   90  A    between atoms: _206  and  _209
REMARK   91  A    between atoms: _209  and  _210
REMARK   92  A    between atoms: _216  and  _218
REMARK   93  A    between atoms: _218  and  _219
REMARK   94  A    between atoms: _218  and  _221
REMARK   95  A    between atoms: _221  and  _222
REMARK   96  A    between atoms: _225  and  _227
REMARK   97  A    between atoms: _227  and  _228
REMARK   98  A    between atoms: _227  and  _230
REMARK   99  A    between atoms: _230  and  _231
REMARK  100  A    between atoms: _234  and  _236
REMARK  101  A    between atoms: _236  and  _237
REMARK  102  A    between atoms: _236  and  _239
REMARK  103  A    between atoms: _239  and  _240
REMARK  104  A    between atoms: _243  and  _245
REMARK  105  A    between atoms: _245  and  _246
REMARK  106  A    between atoms: _245  and  _248
REMARK  107  A    between atoms: _248  and  _249
REMARK  108  A    between atoms: _249  and  _250
REMARK  109  A    between atoms: _252  and  _254
REMARK  110  A    between atoms: _254  and  _255
REMARK  111  A    between atoms: _254  and  _257
REMARK  112  A    between atoms: _257  and  _258
REMARK  113  A    between atoms: _264  and  _266
REMARK  114  A    between atoms: _266  and  _267
REMARK  115  A    between atoms: _266  and  _269
REMARK  116  A    between atoms: _271  and  _273
REMARK  117  A    between atoms: _273  and  _274
REMARK  118  A    between atoms: _277  and  _279
REMARK  119  A    between atoms: _279  and  _280
REMARK  120  A    between atoms: _282  and  _284
REMARK  121  A    between atoms: _284  and  _285
REMARK  122  A    between atoms: _284  and  _287
REMARK  123  A    between atoms: _287  and  _288
REMARK  124  A    between atoms: _288  and  _289
REMARK  125  A    between atoms: _292  and  _294
REMARK  126  A    between atoms: _294  and  _295
REMARK  127  A    between atoms: _294  and  _297
REMARK  128  A    between atoms: _297  and  _298
REMARK  129  A    between atoms: _301  and  _303
REMARK  130  A    between atoms: _303  and  _304
REMARK  131  A    between atoms: _307  and  _309
REMARK  132  A    between atoms: _309  and  _310
REMARK  133  A    between atoms: _309  and  _312
REMARK  134  A    between atoms: _312  and  _313
REMARK  135  A    between atoms: _313  and  _436
REMARK  136  A    between atoms: _314  and  _316
REMARK  137  A    between atoms: _316  and  _317
REMARK  138  A    between atoms: _316  and  _319
REMARK  139  A    between atoms: _319  and  _320
REMARK  140  A    between atoms: _320  and  _321
REMARK  141  A    between atoms: _326  and  _328
REMARK  142  A    between atoms: _328  and  _329
REMARK  143  A    between atoms: _331  and  _333
REMARK  144  A    between atoms: _333  and  _334
REMARK  145  A    between atoms: _333  and  _336
REMARK  146  A    between atoms: _336  and  _337
REMARK  147  A    between atoms: _340  and  _342
REMARK  148  A    between atoms: _342  and  _343
REMARK  149  A    between atoms: _342  and  _345
REMARK  150  A    between atoms: _345  and  _346
REMARK  151  A    between atoms: _348  and  _350
REMARK  152  A    between atoms: _350  and  _351
REMARK  153  A    between atoms: _353  and  _355
REMARK  154  A    between atoms: _355  and  _356
REMARK  155  A    between atoms: _358  and  _360
REMARK  156  A    between atoms: _360  and  _361
REMARK  157  A    between atoms: _360  and  _363
REMARK  158  A    between atoms: _363  and  _364
REMARK  159  A    between atoms: _369  and  _371
REMARK  160  A    between atoms: _371  and  _372
REMARK  161  A    between atoms: _371  and  _374
REMARK  162  A    between atoms: _374  and  _375
REMARK  163  A    between atoms: _378  and  _380
REMARK  164  A    between atoms: _380  and  _381
REMARK  165  A    between atoms: _380  and  _383
REMARK  166  A    between atoms: _386  and  _388
REMARK  167  A    between atoms: _388  and  _389
REMARK  168  A    between atoms: _388  and  _391
REMARK  169  A    between atoms: _391  and  _392
REMARK  170  A    between atoms: _394  and  _396
REMARK  171  A    between atoms: _396  and  _397
REMARK  172  A    between atoms: _396  and  _399
REMARK  173  A    between atoms: _399  and  _400
REMARK  174  A    between atoms: _410  and  _412
REMARK  175  A    between atoms: _412  and  _413
REMARK  176  A    between atoms: _415  and  _417
REMARK  177  A    between atoms: _417  and  _418
REMARK  178  A    between atoms: _417  and  _420
REMARK  179  A    between atoms: _420  and  _421
REMARK  180  A    between atoms: _421  and  _422
REMARK  181  A    between atoms: _425  and  _427
REMARK  182  A    between atoms: _427  and  _428
REMARK  183  A    between atoms: _430  and  _432
REMARK  184  A    between atoms: _432  and  _433
REMARK  185  A    between atoms: _432  and  _435
REMARK  186  A    between atoms: _435  and  _436
REMARK  187  A    between atoms: _437  and  _439
REMARK  188  A    between atoms: _439  and  _440
REMARK  189  A    between atoms: _443  and  _445
REMARK  190  A    between atoms: _445  and  _446
REMARK  191  A    between atoms: _445  and  _448
REMARK  192  A    between atoms: _448  and  _449
REMARK  193  A    between atoms: _449  and  _450
REMARK  194  A    between atoms: _450  and  _451
REMARK  195  A    between atoms: _460  and  _462
REMARK  196  A    between atoms: _462  and  _463
REMARK  197  A    between atoms: _462  and  _465
REMARK  198  A    between atoms: _465  and  _466
REMARK  199  A    between atoms: _466  and  _467
REMARK  200  A    between atoms: _467  and  _468
REMARK  201  A    between atoms: _468  and  _469
REMARK  202  A    between atoms: _473  and  _475
REMARK  203  A    between atoms: _475  and  _476
REMARK  204  A    between atoms: _475  and  _478
REMARK  205  A    between atoms: _478  and  _479
REMARK  206  A    between atoms: _484  and  _485
REMARK  207  A    between atoms: _487  and  _489
REMARK  208  A    between atoms: _489  and  _490
REMARK  209  A    between atoms: _492  and  _494
REMARK  210  A    between atoms: _494  and  _495
REMARK  211  A    between atoms: _494  and  _497
REMARK  212  A    between atoms: _497  and  _498
REMARK  213  A    between atoms: _501  and  _503
REMARK  214  A    between atoms: _503  and  _504
REMARK  215  A    between atoms: _503  and  _506
REMARK  216  A    between atoms: _506  and  _507
REMARK  217  A    between atoms: _512  and  _513
REMARK  218  A    between atoms: _515  and  _517
REMARK  219  A    between atoms: _517  and  _518
REMARK  220  A    between atoms: _517  and  _520
REMARK  221  A    between atoms: _520  and  _521
REMARK                            x       y       z     vdW  Elec       q    Type
REMARK                         _______ _______ _______ _____ _____    ______ ____
ROOT
ATOM      1  CA  CYS A   8      16.048  -2.614  26.292  0.00  0.00    +0.160 C 
ENDROOT
BRANCH   1   2
ATOM      2  C   CYS A   8      16.708  -3.956  26.462  0.00  0.00    +0.242 C 
ATOM      3  N   ALA A   9      16.547  -4.552  27.640  0.00  0.00    -0.297 N 
ATOM      4  H   ALA A   9      15.977  -4.079  28.370  0.00  0.00    +0.150 HD
ATOM      5  O   CYS A   8      17.360  -4.438  25.534  0.00  0.00    -0.273 OA
BRANCH   3   6
ATOM      6  CA  ALA A   9      17.139  -5.837  27.939  0.00  0.00    +0.149 C 
ATOM      7  CB  ALA A   9      16.548  -6.919  27.043  0.00  0.00    +0.031 C 
BRANCH   6   8
ATOM      8  C   ALA A   9      18.665  -5.859  27.852  0.00  0.00    +0.241 C 
ATOM      9  N   ARG A  10      19.310  -4.710  28.028  0.00  0.00    -0.298 N 
ATOM     10  H   ARG A  10      18.774  -3.835  28.197  0.00  0.00    +0.150 HD
ATOM     11  O   ALA A   9      19.253  -6.922  27.650  0.00  0.00    -0.273 OA
BRANCH   9  12
ATOM     12  CA  ARG A  10      20.776  -4.674  27.984  0.00  0.00    +0.137 C 
BRANCH  12  13
ATOM     13  C   ARG A  10      21.408  -5.442  29.133  0.00  0.00    +0.227 C 
ATOM     14  O   ARG A  10      20.856  -5.532  30.237  0.00  0.00    -0.286 OA
ENDBRANCH  12  13
BRANCH  12  15
ATOM     15  CB  ARG A  10      21.319  -3.234  27.927  0.00  0.00    +0.031 C 
BRANCH  15  16
ATOM     16  CG  ARG A  10      21.264  -2.577  26.559  0.00  0.00    +0.045 C 
BRANCH  16  17
ATOM     17  CD  ARG A  10      22.002  -1.221  26.476  0.00  0.00    +0.174 C 
BRANCH  17  18
ATOM     18  NE  ARG A  10      21.514  -0.424  25.346  0.00  0.00    -0.265 N 
ATOM     19  CZ  ARG A  10      21.750   0.878  25.171  0.00  0.00    +0.342 C 
ATOM     20  NH2 ARG A  10      22.493   1.558  26.038  0.00  0.00    -0.292 N 
ATOM     21 HH21 ARG A  10      22.899   1.076  26.865  0.00  0.00    +0.255 HD
ATOM     22 HH22 ARG A  10      22.669   2.572  25.889  0.00  0.00    +0.255 HD
ATOM     23  NH1 ARG A  10      21.238   1.509  24.122  0.00  0.00    -0.292 N 
ATOM     24 HH11 ARG A  10      21.421   2.523  23.985  0.00  0.00    +0.255 HD
ATOM     25 HH12 ARG A  10      20.653   0.989  23.437  0.00  0.00    +0.255 HD
ATOM     26  HE  ARG A  10      20.941  -0.910  24.627  0.00  0.00    +0.259 HD
ENDBRANCH  17  18
ENDBRANCH  16  17
ENDBRANCH  15  16
ENDBRANCH  12  15
ENDBRANCH   9  12
ENDBRANCH   6   8
ENDBRANCH   3   6
ENDBRANCH   1   2
BRANCH   1  27
ATOM     27  N   CYS A   8      17.084  -1.689  25.898  0.00  0.00    -0.296 N 
ATOM     28  C   GLY A   7      17.031  -0.405  26.224  0.00  0.00    +0.243 C 
ATOM     29  O   GLY A   7      16.144   0.059  26.931  0.00  0.00    -0.273 OA
ATOM     30  H   CYS A   8      17.892  -2.039  25.345  0.00  0.00    +0.150 HD
BRANCH  28  31
ATOM     31  CA  GLY A   7      18.159   0.483  25.714  0.00  0.00    +0.176 C 
BRANCH  31  32
ATOM     32  N   GLY A   7      18.403   1.543  26.691  0.00  0.00    -0.295 N 
ATOM     33  C   GLU A   6      19.121   1.300  27.786  0.00  0.00    +0.241 C 
ATOM     34  O   GLU A   6      19.682   0.234  27.981  0.00  0.00    -0.273 OA
ATOM     35  H   GLY A   7      18.013   2.494  26.530  0.00  0.00    +0.150 HD
BRANCH  33  36
ATOM     36  CA  GLU A   6      19.143   2.394  28.850  0.00  0.00    +0.149 C 
BRANCH  36  37
ATOM     37  N   GLU A   6      18.050   2.066  29.764  0.00  0.00    -0.297 N 
ATOM     38  H   GLU A   6      18.236   1.516  30.627  0.00  0.00    +0.150 HD
ATOM     39  C   GLY A   5      16.834   2.471  29.488  0.00  0.00    +0.243 C 
ATOM     40  O   GLY A   5      16.606   3.237  28.565  0.00  0.00    -0.273 OA
BRANCH  39  41
ATOM     41  CA  GLY A   5      15.729   2.012  30.418  0.00  0.00    +0.176 C 
BRANCH  41  42
ATOM     42  N   GLY A   5      14.656   2.990  30.386  0.00  0.00    -0.295 N 
ATOM     43  C   TRP A   4      13.724   3.061  31.340  0.00  0.00    +0.241 C 
ATOM     44  O   TRP A   4      13.680   2.302  32.296  0.00  0.00    -0.273 OA
ATOM     45  H   GLY A   5      14.612   3.659  29.591  0.00  0.00    +0.150 HD
BRANCH  43  46
ATOM     46  CA  TRP A   4      12.713   4.156  31.172  0.00  0.00    +0.153 C 
BRANCH  46  47
ATOM     47  N   TRP A   4      11.552   4.041  32.051  0.00  0.00    -0.297 N 
ATOM     48  H   TRP A   4      11.579   3.411  32.878  0.00  0.00    +0.150 HD
ATOM     49  C   SER A   3      10.459   4.751  31.783  0.00  0.00    +0.243 C 
ATOM     50  O   SER A   3      10.367   5.491  30.806  0.00  0.00    -0.273 OA
BRANCH  49  51
ATOM     51  CA  SER A   3       9.266   4.592  32.704  0.00  0.00    +0.178 C 
BRANCH  51  52
ATOM     52  N   SER A   3       8.802   3.220  32.745  0.00  0.00    -0.295 N 
ATOM     53  H   SER A   3       9.453   2.455  33.016  0.00  0.00    +0.150 HD
ATOM     54  C   VAL A   2       7.541   2.945  32.434  0.00  0.00    +0.241 C 
ATOM     55  O   VAL A   2       6.783   3.773  31.930  0.00  0.00    -0.273 OA
BRANCH  54  56
ATOM     56  CA  VAL A   2       7.056   1.540  32.698  0.00  0.00    +0.148 C 
BRANCH  56  57
ATOM     57  N   VAL A   2       5.826   1.734  33.469  0.00  0.00    -0.297 N 
ATOM     58  C   ILE A   1       5.846   2.392  34.614  0.00  0.00    +0.238 C 
ATOM     59  O   ILE A   1       6.870   2.882  35.072  0.00  0.00    -0.274 OA
ATOM     60  H   VAL A   2       4.928   1.350  33.111  0.00  0.00    +0.150 HD
BRANCH  58  61
ATOM     61  CA  ILE A   1       4.549   2.518  35.372  0.00  0.00    +0.145 C 
BRANCH  61  62
ATOM     62  CB  ILE A   1       4.189   4.053  35.337  0.00  0.00    +0.025 C 
ATOM     63  CG2 ILE A   1       4.031   4.497  33.884  0.00  0.00    +0.002 C 
BRANCH  62  64
ATOM     64  CG1 ILE A   1       2.883   4.381  36.067  0.00  0.00    +0.002 C 
ATOM     65  CD1 ILE A   1       2.807   5.892  36.634  0.00  0.00    +0.000 C 
ENDBRANCH  62  64
ENDBRANCH  61  62
BRANCH  61  66
ATOM     66  N   ILE A   1       4.875   2.053  36.712  0.00  0.00    -0.238 NA
ATOM     67  H   ILE A   1       5.718   2.427  37.192  0.00  0.00    +0.142 HD
ENDBRANCH  61  66
ENDBRANCH  58  61
ENDBRANCH  56  57
BRANCH  56  68
ATOM     68  CB  VAL A   2       6.736   0.840  31.355  0.00  0.00    +0.027 C 
ATOM     69  CG2 VAL A   2       6.104  -0.516  31.617  0.00  0.00    +0.002 C 
ATOM     70  CG1 VAL A   2       7.995   0.704  30.479  0.00  0.00    +0.002 C 
ENDBRANCH  56  68
ENDBRANCH  54  56
ENDBRANCH  51  52
BRANCH  51  71
ATOM     71  CB  SER A   3       9.580   5.103  34.118  0.00  0.00    +0.166 C 
BRANCH  71  72
ATOM     72  OG  SER A   3      10.036   6.451  34.085  0.00  0.00    -0.380 OA
ATOM     73  H   SER A   3       9.335   7.026  33.688  0.00  0.00    +0.211 HD
ENDBRANCH  71  72
ENDBRANCH  51  71
ENDBRANCH  49  51
ENDBRANCH  46  47
BRANCH  46  74
ATOM     74  CB  TRP A   4      13.419   5.499  31.381  0.00  0.00    +0.057 C 
BRANCH  74  75
ATOM     75  CG  TRP A   4      13.972   5.754  32.762  0.00  0.00    -0.002 A 
ATOM     76  CD1 TRP A   4      13.311   6.313  33.804  0.00  0.00    +0.068 A 
ATOM     77  NE1 TRP A   4      14.147   6.431  34.895  0.00  0.00    -0.352 N 
ATOM     78  HE1 TRP A   4      13.872   6.803  35.827  0.00  0.00    +0.166 HD
ATOM     79  CE2 TRP A   4      15.393   5.982  34.558  0.00  0.00    +0.056 A 
ATOM     80  CZ2 TRP A   4      16.561   5.907  35.317  0.00  0.00    +0.017 A 
ATOM     81  CH2 TRP A   4      17.678   5.368  34.718  0.00  0.00    +0.001 A 
ATOM     82  CZ3 TRP A   4      17.645   4.917  33.379  0.00  0.00    +0.000 A 
ATOM     83  CE3 TRP A   4      16.488   5.014  32.626  0.00  0.00    +0.001 A 
ATOM     84  CD2 TRP A   4      15.328   5.536  33.221  0.00  0.00    +0.013 A 
ENDBRANCH  74  75
ENDBRANCH  46  74
ENDBRANCH  43  46
ENDBRANCH  41  42
ENDBRANCH  39  41
ENDBRANCH  36  37
BRANCH  36  85
ATOM     85  CB  GLU A   6      20.469   2.439  29.620  0.00  0.00    +0.041 C 
BRANCH  85  86
ATOM     86  CG  GLU A   6      20.472   3.489  30.741  0.00  0.00    +0.116 C 
BRANCH  86  87
ATOM     87  CD  GLU A   6      21.718   3.427  31.609  0.00  0.00    +0.365 C 
ATOM     88  OE2 GLU A   6      21.605   3.535  32.846  0.00  0.00    -0.246 OA
ATOM     89  OE1 GLU A   6      22.810   3.272  31.045  0.00  0.00    -0.246 OA
ENDBRANCH  86  87
ENDBRANCH  85  86
ENDBRANCH  36  85
ENDBRANCH  33  36
ENDBRANCH  31  32
ENDBRANCH  28  31
ENDBRANCH   1  27
BRANCH   1  90
ATOM     90  CB  CYS A   8      15.005  -2.744  25.181  0.00  0.00    +0.098 C 
BRANCH  90  91
ATOM     91  SG  CYS A   8      14.261  -1.229  24.635  0.00  0.00    -0.080 S 
BRANCH  91  92
ATOM     92  SG  TRP A   4      12.814  -1.903  23.375  0.00  0.00    -0.080 S 
BRANCH  92  93
ATOM     93  CB  TRP A   4      11.402  -2.365  24.446  0.00  0.00    +0.098 C 
BRANCH  93  94
ATOM     94  CA  TRP A   4      11.065  -1.432  25.620  0.00  0.00    +0.160 C 
BRANCH  94  97
ATOM     95  C   SER A   3      10.853  -2.976  27.525  0.00  0.00    +0.241 C 
ATOM     96  O   SER A   3      12.064  -3.137  27.609  0.00  0.00    -0.273 OA
ATOM     97  N   TRP A   4      10.283  -2.168  26.636  0.00  0.00    -0.296 N 
ATOM     98  H   TRP A   4       9.250  -2.050  26.656  0.00  0.00    +0.150 HD
BRANCH  95  99
ATOM     99  CA  SER A   3       9.935  -3.696  28.491  0.00  0.00    +0.149 C 
ATOM    100  CB  SER A   3       9.327  -2.683  29.451  0.00  0.00    +0.031 C 
BRANCH  99 102
ATOM    101  C   VAL A   2      11.210  -5.782  28.727  0.00  0.00    +0.241 C 
ATOM    102  N   SER A   3      10.791  -4.613  29.211  0.00  0.00    -0.297 N 
ATOM    103  H   SER A   3      11.099  -4.343  30.167  0.00  0.00    +0.150 HD
ATOM    104  O   VAL A   2      10.670  -6.374  27.794  0.00  0.00    -0.273 OA
BRANCH 101 105
ATOM    105  CA  VAL A   2      12.401  -6.396  29.436  0.00  0.00    +0.160 C 
BRANCH 105 108
ATOM    106  C   ILE A   1      13.466  -8.576  29.456  0.00  0.00    +0.238 C 
ATOM    107  O   ILE A   1      14.230  -8.249  30.366  0.00  0.00    -0.274 OA
ATOM    108  N   VAL A   2      12.538  -7.766  28.965  0.00  0.00    -0.297 N 
ATOM    109  H   VAL A   2      11.894  -8.117  28.228  0.00  0.00    +0.150 HD
BRANCH 106 110
ATOM    110  CA  ILE A   1      13.561  -9.958  28.817  0.00  0.00    +0.145 C 
BRANCH 110 111
ATOM    111  N   ILE A   1      14.976 -10.271  28.560  0.00  0.00    -0.238 NA
ATOM    112  H   ILE A   1      15.671 -10.058  29.304  0.00  0.00    +0.142 HD
ENDBRANCH 110 111
BRANCH 110 113
ATOM    113  CB  ILE A   1      12.912 -11.001  29.737  0.00  0.00    +0.038 C 
BRANCH 113 114
ATOM    114  CG  ILE A   1      12.952 -12.412  29.187  0.00  0.00    +0.116 C 
BRANCH 114 115
ATOM    115  CD  ILE A   1      11.971 -13.328  29.853  0.00  0.00    +0.365 C 
ATOM    116  OE2 ILE A   1      12.041 -13.486  31.083  0.00  0.00    -0.246 OA
ATOM    117  OE1 ILE A   1      11.136 -13.917  29.135  0.00  0.00    -0.246 OA
ENDBRANCH 114 115
ENDBRANCH 113 114
ENDBRANCH 110 113
ENDBRANCH 106 110
ENDBRANCH 105 108
BRANCH 105 118
ATOM    118  CB  VAL A   2      13.683  -5.609  29.108  0.00  0.00    +0.143 C 
BRANCH 118 119
ATOM    119  CG  VAL A   2      13.878  -4.363  29.989  0.00  0.00    +0.367 C 
ATOM    120  OD2 VAL A   2      13.064  -4.072  30.882  0.00  0.00    -0.246 OA
ATOM    121  OD1 VAL A   2      14.861  -3.645  29.754  0.00  0.00    -0.246 OA
ENDBRANCH 118 119
ENDBRANCH 105 118
ENDBRANCH 101 105
ENDBRANCH  99 102
ENDBRANCH  95  99
ENDBRANCH  94  97
BRANCH  94 122
ATOM    122  C   TRP A   4      10.272  -0.235  25.119  0.00  0.00    +0.242 C 
ATOM    123  O   TRP A   4       9.147   0.012  25.564  0.00  0.00    -0.273 OA
ATOM    124  N   GLY A   5      10.857   0.503  24.171  0.00  0.00    -0.297 N 
ATOM    125  H   GLY A   5      11.819   0.247  23.869  0.00  0.00    +0.150 HD
BRANCH 124 126
ATOM    126  CA  GLY A   5      10.214   1.648  23.540  0.00  0.00    +0.149 C 
BRANCH 126 127
ATOM    127  C   GLY A   5       8.799   1.256  23.143  0.00  0.00    +0.241 C 
ATOM    128  N   GLU A   6       7.818   2.128  23.381  0.00  0.00    -0.295 N 
ATOM    129  H   GLU A   6       8.048   3.054  23.796  0.00  0.00    +0.150 HD
ATOM    130  O   GLY A   5       8.606   0.177  22.622  0.00  0.00    -0.273 OA
BRANCH 128 131
ATOM    131  CA  GLU A   6       6.416   1.806  23.068  0.00  0.00    +0.176 C 
BRANCH 131 132
ATOM    132  C   GLU A   6       5.645   1.139  24.232  0.00  0.00    +0.243 C 
ATOM    133  N   GLY A   7       6.375   0.719  25.265  0.00  0.00    -0.296 N 
ATOM    134  H   GLY A   7       7.411   0.800  25.229  0.00  0.00    +0.150 HD
ATOM    135  O   GLU A   6       4.406   1.001  24.196  0.00  0.00    -0.273 OA
BRANCH 133 136
ATOM    136  CA  GLY A   7       5.737   0.147  26.445  0.00  0.00    +0.160 C 
BRANCH 136 137
ATOM    137  C   GLY A   7       5.614   1.215  27.513  0.00  0.00    +0.241 C 
ATOM    138  O   GLY A   7       4.875   1.056  28.479  0.00  0.00    -0.273 OA
ATOM    139  N   CYS A   8       6.348   2.305  27.334  0.00  0.00    -0.295 N 
ATOM    140  H   CYS A   8       6.899   2.417  26.459  0.00  0.00    +0.150 HD
BRANCH 139 141
ATOM    141  CA  CYS A   8       6.391   3.347  28.350  0.00  0.00    +0.178 C 
BRANCH 141 142
ATOM    142  C   CYS A   8       5.000   3.801  28.684  0.00  0.00    +0.243 C 
ATOM    143  N   ALA A   9       4.757   4.084  29.962  0.00  0.00    -0.295 N 
ATOM    144  H   ALA A   9       5.522   3.993  30.661  0.00  0.00    +0.150 HD
ATOM    145  O   CYS A   8       4.160   3.937  27.777  0.00  0.00    -0.273 OA
BRANCH 143 146
ATOM    146  CA  ALA A   9       3.436   4.519  30.396  0.00  0.00    +0.176 C 
BRANCH 146 147
ATOM    147  C   ALA A   9       2.537   3.346  30.750  0.00  0.00    +0.243 C 
ATOM    148  O   ALA A   9       1.500   3.541  31.382  0.00  0.00    -0.273 OA
ATOM    149  N   ARG A  10       2.923   2.135  30.350  0.00  0.00    -0.296 N 
ATOM    150  H   ARG A  10       3.841   2.014  29.878  0.00  0.00    +0.150 HD
BRANCH 149 151
ATOM    151  CA  ARG A  10       2.060   0.977  30.573  0.00  0.00    +0.163 C 
BRANCH 151 152
ATOM    152  C   ARG A  10       2.166   0.402  31.979  0.00  0.00    +0.229 C 
ATOM    153  O   ARG A  10       2.963   0.903  32.799  0.00  0.00    -0.286 OA
ENDBRANCH 151 152
ENDBRANCH 149 151
ENDBRANCH 146 147
ENDBRANCH 143 146
ENDBRANCH 141 142
BRANCH 141 154
ATOM    154  CB  CYS A   8       7.177   4.554  27.847  0.00  0.00    +0.166 C 
BRANCH 154 155
ATOM    155  O   CYS A   8       8.530   4.369  28.120  0.00  0.00    -0.380 OA
ATOM    156  H   CYS A   8       8.849   3.551  27.662  0.00  0.00    +0.211 HD
ENDBRANCH 154 155
ENDBRANCH 141 154
ENDBRANCH 139 141
ENDBRANCH 136 137
BRANCH 136 157
ATOM    157  CB  GLY A   7       6.531  -1.044  26.978  0.00  0.00    +0.143 C 
BRANCH 157 158
ATOM    158  CG  GLY A   7       6.547  -2.197  26.007  0.00  0.00    +0.367 C 
ATOM    159  OD2 GLY A   7       7.577  -2.863  25.884  0.00  0.00    -0.246 OA
ATOM    160  OD1 GLY A   7       5.514  -2.412  25.352  0.00  0.00    -0.246 OA
ENDBRANCH 157 158
ENDBRANCH 136 157
ENDBRANCH 133 136
ENDBRANCH 131 132
ENDBRANCH 128 131
ENDBRANCH 126 127
BRANCH 126 161
ATOM    161  CB  GLY A   5      11.032   2.039  22.301  0.00  0.00    +0.039 C 
BRANCH 161 162
ATOM    162  CG  GLY A   5      10.621   3.338  21.627  0.00  0.00    +0.087 C 
BRANCH 162 163
ATOM    163  CD  GLY A   5      11.581   3.719  20.504  0.00  0.00    +0.219 C 
ATOM    164  NE2 GLY A   5      11.697   5.014  20.228  0.00  0.00    -0.329 N 
ATOM    165 HE21 GLY A   5      11.139   5.711  20.761  0.00  0.00    +0.145 HD
ATOM    166 HE22 GLY A   5      12.346   5.330  19.480  0.00  0.00    +0.145 HD
ATOM    167  OE1 GLY A   5      12.217   2.851  19.906  0.00  0.00    -0.275 OA
ENDBRANCH 162 163
ENDBRANCH 161 162
ENDBRANCH 126 161
ENDBRANCH 124 126
ENDBRANCH  94 122
ENDBRANCH  93  94
ENDBRANCH  92  93
ENDBRANCH  91  92
ENDBRANCH  90  91
ENDBRANCH   1  90
TORSDOF 71
REMARK  Name = ../refined-set-2016/2vwm/2vwm_pocket.pdb
REMARK  221 active torsions:
REMARK  status: ('A' for Active; 'I' for Inactive)
REMARK    1  A    between atoms: _1  and  _5
REMARK    2  A    between atoms: _5  and  _6
REMARK    3  A    between atoms: _5  and  _8
REMARK    4  A    between atoms: _8  and  _9
REMARK    5  A    between atoms: _12  and  _14
REMARK    6  A    between atoms: _14  and  _15
REMARK    7  A    between atoms: _14  and  _17
REMARK    8  A    between atoms: _20  and  _22
REMARK    9  A    between atoms: _22  and  _23
REMARK   10  A    between atoms: _22  and  _25
REMARK   11  A    between atoms: _25  and  _26
REMARK   12  A    between atoms: _31  and  _33
REMARK   13  A    between atoms: _33  and  _34
REMARK   14  A    between atoms: _33  and  _36
REMARK   15  A    between atoms: _36  and  _37
REMARK   16  A    between atoms: _37  and  _38
REMARK   17  A    between atoms: _43  and  _45
REMARK   18  A    between atoms: _45  and  _46
REMARK   19  A    between atoms: _45  and  _48
REMARK   20  A    between atoms: _48  and  _49
REMARK   21  A    between atoms: _52  and  _54
REMARK   22  A    between atoms: _54  and  _55
REMARK   23  A    between atoms: _54  and  _57
REMARK   24  A    between atoms: _57  and  _58
REMARK   25  A    between atoms: _58  and  _59
REMARK   26  A    between atoms: _59  and  _60
REMARK   27  A    between atoms: _60  and  _61
REMARK   28  A    between atoms: _65  and  _67
REMARK   29  A    between atoms: _67  and  _68
REMARK   30  A    between atoms: _67  and  _70
REMARK   31  A    between atoms: _70  and  _71
REMARK   32  A    between atoms: _71  and  _72
REMARK   33  A    between atoms: _75  and  _77
REMARK   34  A    between atoms: _77  and  _78
REMARK   35  A    between atoms: _77  and  _80
REMARK   36  A    between atoms: _80  and  _81
REMARK   37  A    between atoms: _84  and  _86
REMARK   38  A    between atoms: _86  and  _87
REMARK   39  A    between atoms: _86  and  _89
REMARK   40  A    between atoms: _89  and  _90
REMARK   41  A    between atoms: _95  and  _96
REMARK   42  A    between atoms: _98  and  _100
REMARK   43  A    between atoms: _100  and  _101
REMARK   44  A    between atoms: _100  and  _103
REMARK   45  A    between atoms: _103  and  _104
REMARK   46  A    between atoms: _107  and  _109
REMARK   47  A    between atoms: _109  and  _110
REMARK   48  A    between atoms: _109  and  _112
REMARK   49  A    between atoms: _112  and  _113
REMARK   50  A    between atoms: _116  and  _118
REMARK   51  A    between atoms: _118  and  _119
REMARK   52  A    between atoms: _118  and  _121
REMARK   53  A    between atoms: _124  and  _126
REMARK   54  A    between atoms: _126  and  _127
REMARK   55  A    between atoms: _126  and  _129
REMARK   56  A    between atoms: _129  and  _130
REMARK   57  A    between atoms: _130  and  _131
REMARK   58  A    between atoms: _131  and  _132
REMARK   59  A    between atoms: _141  and  _143
REMARK   60  A    between atoms: _143  and  _144
REMARK   61  A    between atoms: _143  and  _146
REMARK   62  A    between atoms: _146  and  _147
REMARK   63  A    between atoms: _152  and  _154
REMARK   64  A    between atoms: _154  and  _155
REMARK   65  A    between atoms: _154  and  _157
REMARK   66  A    between atoms: _157  and  _158
REMARK   67  A    between atoms: _158  and  _159
REMARK   68  A    between atoms: _162  and  _164
REMARK   69  A    between atoms: _164  and  _165
REMARK   70  A    between atoms: _164  and  _167
REMARK   71  A    between atoms: _167  and  _168
REMARK   72  A    between atoms: _168  and  _169
REMARK   73  A    between atoms: _169  and  _170
REMARK   74  A    between atoms: _170  and  _171
REMARK   75  A    between atoms: _175  and  _177
REMARK   76  A    between atoms: _177  and  _178
REMARK   77  A    between atoms: _180  and  _182
REMARK   78  A    between atoms: _182  and  _183
REMARK   79  A    between atoms: _182  and  _185
REMARK   80  A    between atoms: _188  and  _190
REMARK   81  A    between atoms: _190  and  _191
REMARK   82  A    between atoms: _190  and  _193
REMARK   83  A    between atoms: _193  and  _194
REMARK   84  A    between atoms: _196  and  _198
REMARK   85  A    between atoms: _198  and  _199
REMARK   86  A    between atoms: _198  and  _201
REMARK   87  A    between atoms: _201  and  _202
REMARK   88  A    between atoms: _204  and  _206
REMARK   89  A    between atoms: _206  and  _207
REMARK   90  A    between atoms: _206  and  _209
REMARK   91  A    between atoms: _209  and  _210
REMARK   92  A    between atoms: _216  and  _218
REMARK   93  A    between atoms: _218  and  _219
REMARK   94  A    between atoms: _218  and  _221
REMARK   95  A    between atoms: _221  and  _222
REMARK   96  A    between atoms: _225  and  _227
REMARK   97  A    between atoms: _227  and  _228
REMARK   98  A    between atoms: _227  and  _230
REMARK   99  A    between atoms: _230  and  _231
REMARK  100  A    between atoms: _234  and  _236
REMARK  101  A    between atoms: _236  and  _237
REMARK  102  A    between atoms: _236  and  _239
REMARK  103  A    between atoms: _239  and  _240
REMARK  104  A    between atoms: _243  and  _245
REMARK  105  A    between atoms: _245  and  _246
REMARK  106  A    between atoms: _245  and  _248
REMARK  107  A    between atoms: _248  and  _249
REMARK  108  A    between atoms: _249  and  _250
REMARK  109  A    between atoms: _252  and  _254
REMARK  110  A    between atoms: _254  and  _255
REMARK  111  A    between atoms: _254  and  _257
REMARK  112  A    between atoms: _257  and  _258
REMARK  113  A    between atoms: _264  and  _266
REMARK  114  A    between atoms: _266  and  _267
REMARK  115  A    between atoms: _266  and  _269
REMARK  116  A    between atoms: _271  and  _273
REMARK  117  A    between atoms: _273  and  _274
REMARK  118  A    between atoms: _277  and  _279
REMARK  119  A    between atoms: _279  and  _280
REMARK  120  A    between atoms: _282  and  _284
REMARK  121  A    between atoms: _284  and  _285
REMARK  122  A    between atoms: _284  and  _287
REMARK  123  A    between atoms: _287  and  _288
REMARK  124  A    between atoms: _288  and  _289
REMARK  125  A    between atoms: _292  and  _294
REMARK  126  A    between atoms: _294  and  _295
REMARK  127  A    between atoms: _294  and  _297
REMARK  128  A    between atoms: _297  and  _298
REMARK  129  A    between atoms: _301  and  _303
REMARK  130  A    between atoms: _303  and  _304
REMARK  131  A    between atoms: _307  and  _309
REMARK  132  A    between atoms: _309  and  _310
REMARK  133  A    between atoms: _309  and  _312
REMARK  134  A    between atoms: _312  and  _313
REMARK  135  A    between atoms: _313  and  _436
REMARK  136  A    between atoms: _314  and  _316
REMARK  137  A    between atoms: _316  and  _317
REMARK  138  A    between atoms: _316  and  _319
REMARK  139  A    between atoms: _319  and  _320
REMARK  140  A    between atoms: _320  and  _321
REMARK  141  A    between atoms: _326  and  _328
REMARK  142  A    between atoms: _328  and  _329
REMARK  143  A    between atoms: _331  and  _333
REMARK  144  A    between atoms: _333  and  _334
REMARK  145  A    between atoms: _333  and  _336
REMARK  146  A    between atoms: _336  and  _337
REMARK  147  A    between atoms: _340  and  _342
REMARK  148  A    between atoms: _342  and  _343
REMARK  149  A    between atoms: _342  and  _345
REMARK  150  A    between atoms: _345  and  _346
REMARK  151  A    between atoms: _348  and  _350
REMARK  152  A    between atoms: _350  and  _351
REMARK  153  A    between atoms: _353  and  _355
REMARK  154  A    between atoms: _355  and  _356
REMARK  155  A    between atoms: _358  and  _360
REMARK  156  A    between atoms: _360  and  _361
REMARK  157  A    between atoms: _360  and  _363
REMARK  158  A    between atoms: _363  and  _364
REMARK  159  A    between atoms: _369  and  _371
REMARK  160  A    between atoms: _371  and  _372
REMARK  161  A    between atoms: _371  and  _374
REMARK  162  A    between atoms: _374  and  _375
REMARK  163  A    between atoms: _378  and  _380
REMARK  164  A    between atoms: _380  and  _381
REMARK  165  A    between atoms: _380  and  _383
REMARK  166  A    between atoms: _386  and  _388
REMARK  167  A    between atoms: _388  and  _389
REMARK  168  A    between atoms: _388  and  _391
REMARK  169  A    between atoms: _391  and  _392
REMARK  170  A    between atoms: _394  and  _396
REMARK  171  A    between atoms: _396  and  _397
REMARK  172  A    between atoms: _396  and  _399
REMARK  173  A    between atoms: _399  and  _400
REMARK  174  A    between atoms: _410  and  _412
REMARK  175  A    between atoms: _412  and  _413
REMARK  176  A    between atoms: _415  and  _417
REMARK  177  A    between atoms: _417  and  _418
REMARK  178  A    between atoms: _417  and  _420
REMARK  179  A    between atoms: _420  and  _421
REMARK  180  A    between atoms: _421  and  _422
REMARK  181  A    between atoms: _425  and  _427
REMARK  182  A    between atoms: _427  and  _428
REMARK  183  A    between atoms: _430  and  _432
REMARK  184  A    between atoms: _432  and  _433
REMARK  185  A    between atoms: _432  and  _435
REMARK  186  A    between atoms: _435  and  _436
REMARK  187  A    between atoms: _437  and  _439
REMARK  188  A    between atoms: _439  and  _440
REMARK  189  A    between atoms: _443  and  _445
REMARK  190  A    between atoms: _445  and  _446
REMARK  191  A    between atoms: _445  and  _448
REMARK  192  A    between atoms: _448  and  _449
REMARK  193  A    between atoms: _449  and  _450
REMARK  194  A    between atoms: _450  and  _451
REMARK  195  A    between atoms: _460  and  _462
REMARK  196  A    between atoms: _462  and  _463
REMARK  197  A    between atoms: _462  and  _465
REMARK  198  A    between atoms: _465  and  _466
REMARK  199  A    between atoms: _466  and  _467
REMARK  200  A    between atoms: _467  and  _468
REMARK  201  A    between atoms: _468  and  _469
REMARK  202  A    between atoms: _473  and  _475
REMARK  203  A    between atoms: _475  and  _476
REMARK  204  A    between atoms: _475  and  _478
REMARK  205  A    between atoms: _478  and  _479
REMARK  206  A    between atoms: _484  and  _485
REMARK  207  A    between atoms: _487  and  _489
REMARK  208  A    between atoms: _489  and  _490
REMARK  209  A    between atoms: _492  and  _494
REMARK  210  A    between atoms: _494  and  _495
REMARK  211  A    between atoms: _494  and  _497
REMARK  212  A    between atoms: _497  and  _498
REMARK  213  A    between atoms: _501  and  _503
REMARK  214  A    between atoms: _503  and  _504
REMARK  215  A    between atoms: _503  and  _506
REMARK  216  A    between atoms: _506  and  _507
REMARK  217  A    between atoms: _512  and  _513
REMARK  218  A    between atoms: _515  and  _517
REMARK  219  A    between atoms: _517  and  _518
REMARK  220  A    between atoms: _517  and  _520
REMARK  221  A    between atoms: _520  and  _521
REMARK                            x       y       z     vdW  Elec       q    Type
REMARK                         _______ _______ _______ _____ _____    ______ ____
ROOT
ATOM      1  CB  HIS A   1       4.836  -2.275  36.610  0.00  0.00    +0.072 C 
ENDROOT
BRANCH   1   2
ATOM      2  CG  HIS A   1       5.624  -3.215  37.476  0.00  0.00    +0.082 A 
ATOM      3  ND1 HIS A   1       5.315  -3.443  38.804  0.00  0.00    -0.227 NA
ATOM      4  CE1 HIS A   1       6.196  -4.277  39.318  0.00  0.00    +0.199 A 
ATOM      5  NE2 HIS A   1       7.017  -4.662  38.355  0.00  0.00    -0.221 NA
ATOM      6  CD2 HIS A   1       6.701  -3.994  37.202  0.00  0.00    +0.115 A 
ENDBRANCH   1   2
BRANCH   1   7
ATOM      7  CA  HIS A   1       3.516  -2.861  36.093  0.00  0.00    +0.139 C 
BRANCH   7   8
ATOM      8  N   HIS A   1       2.786  -1.901  35.315  0.00  0.00    -0.239 NA
ATOM      9  H   HIS A   1       2.504  -1.016  35.782  0.00  0.00    +0.142 HD
ENDBRANCH   7   8
BRANCH   7  10
ATOM     10  C   HIS A   1       2.559  -3.187  37.218  0.00  0.00    +0.224 C 
ATOM     11  O   HIS A   1       2.114  -2.295  37.979  0.00  0.00    -0.287 OA
ENDBRANCH   7  10
ENDBRANCH   1   7
TORSDOF 4
REMARK  Name = ../refined-set-2016/2vwm/2vwm_pocket.pdb
REMARK  221 active torsions:
REMARK  status: ('A' for Active; 'I' for Inactive)
REMARK    1  A    between atoms: _1  and  _5
REMARK    2  A    between atoms: _5  and  _6
REMARK    3  A    between atoms: _5  and  _8
REMARK    4  A    between atoms: _8  and  _9
REMARK    5  A    between atoms: _12  and  _14
REMARK    6  A    between atoms: _14  and  _15
REMARK    7  A    between atoms: _14  and  _17
REMARK    8  A    between atoms: _20  and  _22
REMARK    9  A    between atoms: _22  and  _23
REMARK   10  A    between atoms: _22  and  _25
REMARK   11  A    between atoms: _25  and  _26
REMARK   12  A    between atoms: _31  and  _33
REMARK   13  A    between atoms: _33  and  _34
REMARK   14  A    between atoms: _33  and  _36
REMARK   15  A    between atoms: _36  and  _37
REMARK   16  A    between atoms: _37  and  _38
REMARK   17  A    between atoms: _43  and  _45
REMARK   18  A    between atoms: _45  and  _46
REMARK   19  A    between atoms: _45  and  _48
REMARK   20  A    between atoms: _48  and  _49
REMARK   21  A    between atoms: _52  and  _54
REMARK   22  A    between atoms: _54  and  _55
REMARK   23  A    between atoms: _54  and  _57
REMARK   24  A    between atoms: _57  and  _58
REMARK   25  A    between atoms: _58  and  _59
REMARK   26  A    between atoms: _59  and  _60
REMARK   27  A    between atoms: _60  and  _61
REMARK   28  A    between atoms: _65  and  _67
REMARK   29  A    between atoms: _67  and  _68
REMARK   30  A    between atoms: _67  and  _70
REMARK   31  A    between atoms: _70  and  _71
REMARK   32  A    between atoms: _71  and  _72
REMARK   33  A    between atoms: _75  and  _77
REMARK   34  A    between atoms: _77  and  _78
REMARK   35  A    between atoms: _77  and  _80
REMARK   36  A    between atoms: _80  and  _81
REMARK   37  A    between atoms: _84  and  _86
REMARK   38  A    between atoms: _86  and  _87
REMARK   39  A    between atoms: _86  and  _89
REMARK   40  A    between atoms: _89  and  _90
REMARK   41  A    between atoms: _95  and  _96
REMARK   42  A    between atoms: _98  and  _100
REMARK   43  A    between atoms: _100  and  _101
REMARK   44  A    between atoms: _100  and  _103
REMARK   45  A    between atoms: _103  and  _104
REMARK   46  A    between atoms: _107  and  _109
REMARK   47  A    between atoms: _109  and  _110
REMARK   48  A    between atoms: _109  and  _112
REMARK   49  A    between atoms: _112  and  _113
REMARK   50  A    between atoms: _116  and  _118
REMARK   51  A    between atoms: _118  and  _119
REMARK   52  A    between atoms: _118  and  _121
REMARK   53  A    between atoms: _124  and  _126
REMARK   54  A    between atoms: _126  and  _127
REMARK   55  A    between atoms: _126  and  _129
REMARK   56  A    between atoms: _129  and  _130
REMARK   57  A    between atoms: _130  and  _131
REMARK   58  A    between atoms: _131  and  _132
REMARK   59  A    between atoms: _141  and  _143
REMARK   60  A    between atoms: _143  and  _144
REMARK   61  A    between atoms: _143  and  _146
REMARK   62  A    between atoms: _146  and  _147
REMARK   63  A    between atoms: _152  and  _154
REMARK   64  A    between atoms: _154  and  _155
REMARK   65  A    between atoms: _154  and  _157
REMARK   66  A    between atoms: _157  and  _158
REMARK   67  A    between atoms: _158  and  _159
REMARK   68  A    between atoms: _162  and  _164
REMARK   69  A    between atoms: _164  and  _165
REMARK   70  A    between atoms: _164  and  _167
REMARK   71  A    between atoms: _167  and  _168
REMARK   72  A    between atoms: _168  and  _169
REMARK   73  A    between atoms: _169  and  _170
REMARK   74  A    between atoms: _170  and  _171
REMARK   75  A    between atoms: _175  and  _177
REMARK   76  A    between atoms: _177  and  _178
REMARK   77  A    between atoms: _180  and  _182
REMARK   78  A    between atoms: _182  and  _183
REMARK   79  A    between atoms: _182  and  _185
REMARK   80  A    between atoms: _188  and  _190
REMARK   81  A    between atoms: _190  and  _191
REMARK   82  A    between atoms: _190  and  _193
REMARK   83  A    between atoms: _193  and  _194
REMARK   84  A    between atoms: _196  and  _198
REMARK   85  A    between atoms: _198  and  _199
REMARK   86  A    between atoms: _198  and  _201
REMARK   87  A    between atoms: _201  and  _202
REMARK   88  A    between atoms: _204  and  _206
REMARK   89  A    between atoms: _206  and  _207
REMARK   90  A    between atoms: _206  and  _209
REMARK   91  A    between atoms: _209  and  _210
REMARK   92  A    between atoms: _216  and  _218
REMARK   93  A    between atoms: _218  and  _219
REMARK   94  A    between atoms: _218  and  _221
REMARK   95  A    between atoms: _221  and  _222
REMARK   96  A    between atoms: _225  and  _227
REMARK   97  A    between atoms: _227  and  _228
REMARK   98  A    between atoms: _227  and  _230
REMARK   99  A    between atoms: _230  and  _231
REMARK  100  A    between atoms: _234  and  _236
REMARK  101  A    between atoms: _236  and  _237
REMARK  102  A    between atoms: _236  and  _239
REMARK  103  A    between atoms: _239  and  _240
REMARK  104  A    between atoms: _243  and  _245
REMARK  105  A    between atoms: _245  and  _246
REMARK  106  A    between atoms: _245  and  _248
REMARK  107  A    between atoms: _248  and  _249
REMARK  108  A    between atoms: _249  and  _250
REMARK  109  A    between atoms: _252  and  _254
REMARK  110  A    between atoms: _254  and  _255
REMARK  111  A    between atoms: _254  and  _257
REMARK  112  A    between atoms: _257  and  _258
REMARK  113  A    between atoms: _264  and  _266
REMARK  114  A    between atoms: _266  and  _267
REMARK  115  A    between atoms: _266  and  _269
REMARK  116  A    between atoms: _271  and  _273
REMARK  117  A    between atoms: _273  and  _274
REMARK  118  A    between atoms: _277  and  _279
REMARK  119  A    between atoms: _279  and  _280
REMARK  120  A    between atoms: _282  and  _284
REMARK  121  A    between atoms: _284  and  _285
REMARK  122  A    between atoms: _284  and  _287
REMARK  123  A    between atoms: _287  and  _288
REMARK  124  A    between atoms: _288  and  _289
REMARK  125  A    between atoms: _292  and  _294
REMARK  126  A    between atoms: _294  and  _295
REMARK  127  A    between atoms: _294  and  _297
REMARK  128  A    between atoms: _297  and  _298
REMARK  129  A    between atoms: _301  and  _303
REMARK  130  A    between atoms: _303  and  _304
REMARK  131  A    between atoms: _307  and  _309
REMARK  132  A    between atoms: _309  and  _310
REMARK  133  A    between atoms: _309  and  _312
REMARK  134  A    between atoms: _312  and  _313
REMARK  135  A    between atoms: _313  and  _436
REMARK  136  A    between atoms: _314  and  _316
REMARK  137  A    between atoms: _316  and  _317
REMARK  138  A    between atoms: _316  and  _319
REMARK  139  A    between atoms: _319  and  _320
REMARK  140  A    between atoms: _320  and  _321
REMARK  141  A    between atoms: _326  and  _328
REMARK  142  A    between atoms: _328  and  _329
REMARK  143  A    between atoms: _331  and  _333
REMARK  144  A    between atoms: _333  and  _334
REMARK  145  A    between atoms: _333  and  _336
REMARK  146  A    between atoms: _336  and  _337
REMARK  147  A    between atoms: _340  and  _342
REMARK  148  A    between atoms: _342  and  _343
REMARK  149  A    between atoms: _342  and  _345
REMARK  150  A    between atoms: _345  and  _346
REMARK  151  A    between atoms: _348  and  _350
REMARK  152  A    between atoms: _350  and  _351
REMARK  153  A    between atoms: _353  and  _355
REMARK  154  A    between atoms: _355  and  _356
REMARK  155  A    between atoms: _358  and  _360
REMARK  156  A    between atoms: _360  and  _361
REMARK  157  A    between atoms: _360  and  _363
REMARK  158  A    between atoms: _363  and  _364
REMARK  159  A    between atoms: _369  and  _371
REMARK  160  A    between atoms: _371  and  _372
REMARK  161  A    between atoms: _371  and  _374
REMARK  162  A    between atoms: _374  and  _375
REMARK  163  A    between atoms: _378  and  _380
REMARK  164  A    between atoms: _380  and  _381
REMARK  165  A    between atoms: _380  and  _383
REMARK  166  A    between atoms: _386  and  _388
REMARK  167  A    between atoms: _388  and  _389
REMARK  168  A    between atoms: _388  and  _391
REMARK  169  A    between atoms: _391  and  _392
REMARK  170  A    between atoms: _394  and  _396
REMARK  171  A    between atoms: _396  and  _397
REMARK  172  A    between atoms: _396  and  _399
REMARK  173  A    between atoms: _399  and  _400
REMARK  174  A    between atoms: _410  and  _412
REMARK  175  A    between atoms: _412  and  _413
REMARK  176  A    between atoms: _415  and  _417
REMARK  177  A    between atoms: _417  and  _418
REMARK  178  A    between atoms: _417  and  _420
REMARK  179  A    between atoms: _420  and  _421
REMARK  180  A    between atoms: _421  and  _422
REMARK  181  A    between atoms: _425  and  _427
REMARK  182  A    between atoms: _427  and  _428
REMARK  183  A    between atoms: _430  and  _432
REMARK  184  A    between atoms: _432  and  _433
REMARK  185  A    between atoms: _432  and  _435
REMARK  186  A    between atoms: _435  and  _436
REMARK  187  A    between atoms: _437  and  _439
REMARK  188  A    between atoms: _439  and  _440
REMARK  189  A    between atoms: _443  and  _445
REMARK  190  A    between atoms: _445  and  _446
REMARK  191  A    between atoms: _445  and  _448
REMARK  192  A    between atoms: _448  and  _449
REMARK  193  A    between atoms: _449  and  _450
REMARK  194  A    between atoms: _450  and  _451
REMARK  195  A    between atoms: _460  and  _462
REMARK  196  A    between atoms: _462  and  _463
REMARK  197  A    between atoms: _462  and  _465
REMARK  198  A    between atoms: _465  and  _466
REMARK  199  A    between atoms: _466  and  _467
REMARK  200  A    between atoms: _467  and  _468
REMARK  201  A    between atoms: _468  and  _469
REMARK  202  A    between atoms: _473  and  _475
REMARK  203  A    between atoms: _475  and  _476
REMARK  204  A    between atoms: _475  and  _478
REMARK  205  A    between atoms: _478  and  _479
REMARK  206  A    between atoms: _484  and  _485
REMARK  207  A    between atoms: _487  and  _489
REMARK  208  A    between atoms: _489  and  _490
REMARK  209  A    between atoms: _492  and  _494
REMARK  210  A    between atoms: _494  and  _495
REMARK  211  A    between atoms: _494  and  _497
REMARK  212  A    between atoms: _497  and  _498
REMARK  213  A    between atoms: _501  and  _503
REMARK  214  A    between atoms: _503  and  _504
REMARK  215  A    between atoms: _503  and  _506
REMARK  216  A    between atoms: _506  and  _507
REMARK  217  A    between atoms: _512  and  _513
REMARK  218  A    between atoms: _515  and  _517
REMARK  219  A    between atoms: _517  and  _518
REMARK  220  A    between atoms: _517  and  _520
REMARK  221  A    between atoms: _520  and  _521
REMARK                            x       y       z     vdW  Elec       q    Type
REMARK                         _______ _______ _______ _____ _____    ______ ____
ROOT
ATOM      1  C   GLY A   3      13.648  -0.758  34.677  0.00  0.00    +0.243 C 
ATOM      2  O   GLY A   3      13.691  -1.162  35.845  0.00  0.00    -0.273 OA
ATOM      3  N   ILE A   4      13.413   0.521  34.379  0.00  0.00    -0.297 N 
ATOM      4  H   ILE A   4      13.446   0.836  33.388  0.00  0.00    +0.150 HD
ENDROOT
BRANCH   3   5
ATOM      5  CA  ILE A   4      13.106   1.492  35.447  0.00  0.00    +0.149 C 
BRANCH   5   6
ATOM      6  C   ILE A   4      11.641   1.913  35.375  0.00  0.00    +0.241 C 
ATOM      7  N   TYR A   5      10.956   1.813  36.524  0.00  0.00    -0.297 N 
ATOM      8  H   TYR A   5      11.488   1.574  37.385  0.00  0.00    +0.150 HD
ATOM      9  O   ILE A   4      11.142   2.299  34.315  0.00  0.00    -0.273 OA
BRANCH   7  10
ATOM     10  CA  TYR A   5       9.533   2.014  36.648  0.00  0.00    +0.153 C 
BRANCH  10  11
ATOM     11  C   TYR A   5       9.211   3.128  37.626  0.00  0.00    +0.241 C 
ATOM     12  O   TYR A   5       9.862   3.249  38.658  0.00  0.00    -0.273 OA
ATOM     13  N   THR A   6       8.177   3.908  37.336  0.00  0.00    -0.296 N 
ATOM     14  H   THR A   6       7.702   3.817  36.415  0.00  0.00    +0.150 HD
BRANCH  13  15
ATOM     15  CA  THR A   6       7.710   4.881  38.292  0.00  0.00    +0.164 C 
BRANCH  15  16
ATOM     16  C   THR A   6       7.191   4.079  39.486  0.00  0.00    +0.229 C 
ATOM     17  O   THR A   6       6.449   3.104  39.303  0.00  0.00    -0.286 OA
ENDBRANCH  15  16
BRANCH  15  18
ATOM     18  CB  THR A   6       6.574   5.764  37.723  0.00  0.00    +0.136 C 
ATOM     19  CG2 THR A   6       6.211   6.880  38.703  0.00  0.00    +0.034 C 
BRANCH  18  20
ATOM     20  OG1 THR A   6       6.987   6.342  36.468  0.00  0.00    -0.382 OA
ATOM     21  HG1 THR A   6       6.256   6.906  36.109  0.00  0.00    +0.210 HD
ENDBRANCH  18  20
ENDBRANCH  15  18
ENDBRANCH  13  15
ENDBRANCH  10  11
BRANCH  10  22
ATOM     22  CB  TYR A   5       8.904   0.730  37.204  0.00  0.00    +0.055 C 
BRANCH  22  23
ATOM     23  CG  TYR A   5       9.043  -0.415  36.243  0.00  0.00    -0.020 A 
ATOM     24  CD2 TYR A   5      10.230  -1.100  36.136  0.00  0.00    -0.001 A 
ATOM     25  CE2 TYR A   5      10.350  -2.151  35.230  0.00  0.00    +0.036 A 
ATOM     26  CZ  TYR A   5       9.278  -2.485  34.428  0.00  0.00    +0.134 A 
ATOM     27  CE1 TYR A   5       8.070  -1.817  34.540  0.00  0.00    +0.036 A 
ATOM     28  CD1 TYR A   5       7.975  -0.785  35.420  0.00  0.00    -0.001 A 
BRANCH  26  29
ATOM     29  OH  TYR A   5       9.382  -3.521  33.552  0.00  0.00    -0.506 OA
ATOM     30  HH  TYR A   5      10.114  -3.337  32.911  0.00  0.00    +0.292 HD
ENDBRANCH  26  29
ENDBRANCH  22  23
ENDBRANCH  10  22
ENDBRANCH   7  10
ENDBRANCH   5   6
BRANCH   5  31
ATOM     31  CB  ILE A   4      14.049   2.721  35.421  0.00  0.00    +0.027 C 
ATOM     32  CG2 ILE A   4      13.850   3.608  36.694  0.00  0.00    +0.002 C 
BRANCH  31  33
ATOM     33  CG1 ILE A   4      15.518   2.263  35.228  0.00  0.00    +0.002 C 
ATOM     34  CD1 ILE A   4      15.998   1.171  36.153  0.00  0.00    +0.000 C 
ENDBRANCH  31  33
ENDBRANCH   5  31
ENDBRANCH   3   5
BRANCH   1  35
ATOM     35  CA  GLY A   3      13.882  -1.722  33.524  0.00  0.00    +0.176 C 
BRANCH  35  37
ATOM     36  C   TYR A   2      16.270  -2.178  33.713  0.00  0.00    +0.241 C 
ATOM     37  N   GLY A   3      15.008  -2.612  33.805  0.00  0.00    -0.295 N 
ATOM     38  H   GLY A   3      14.825  -3.598  34.081  0.00  0.00    +0.150 HD
ATOM     39  O   TYR A   2      16.577  -1.068  33.245  0.00  0.00    -0.273 OA
BRANCH  36  40
ATOM     40  CA  TYR A   2      17.335  -3.107  34.253  0.00  0.00    +0.153 C 
BRANCH  40  42
ATOM     41  C   LYS A   1      19.551  -3.395  33.221  0.00  0.00    +0.238 C 
ATOM     42  N   TYR A   2      18.693  -2.646  33.917  0.00  0.00    -0.297 N 
ATOM     43  H   TYR A   2      18.994  -1.702  34.234  0.00  0.00    +0.150 HD
ATOM     44  O   LYS A   1      19.307  -4.542  32.846  0.00  0.00    -0.274 OA
BRANCH  41  45
ATOM     45  CA  LYS A   1      20.915  -2.791  32.953  0.00  0.00    +0.145 C 
BRANCH  45  46
ATOM     46  N   LYS A   1      21.859  -3.869  32.821  0.00  0.00    -0.238 NA
ATOM     47  H   LYS A   1      21.646  -4.663  32.184  0.00  0.00    +0.142 HD
ENDBRANCH  45  46
BRANCH  45  48
ATOM     48  CB  LYS A   1      20.892  -1.943  31.681  0.00  0.00    +0.026 C 
BRANCH  48  49
ATOM     49  CG  LYS A   1      22.204  -1.225  31.392  0.00  0.00    -0.000 C 
BRANCH  49  50
ATOM     50  CD  LYS A   1      22.525  -0.163  32.422  0.00  0.00    -0.024 C 
BRANCH  50  51
ATOM     51  CE  LYS A   1      23.864   0.513  32.162  0.00  0.00    -0.086 C 
BRANCH  51  52
ATOM     52  NZ  LYS A   1      24.925  -0.078  33.001  0.00  0.00    +0.380 N 
ATOM     53  HZ1 LYS A   1      24.679   0.042  34.004  0.00  0.00    -0.089 HD
ATOM     54  HZ2 LYS A   1      25.827   0.400  32.805  0.00  0.00    -0.089 HD
ATOM     55  HZ3 LYS A   1      25.014  -1.091  32.783  0.00  0.00    -0.089 HD
ENDBRANCH  51  52
ENDBRANCH  50  51
ENDBRANCH  49  50
ENDBRANCH  48  49
ENDBRANCH  45  48
ENDBRANCH  41  45
ENDBRANCH  40  42
BRANCH  40  56
ATOM     56  CB  TYR A   2      17.159  -3.210  35.788  0.00  0.00    +0.055 C 
BRANCH  56  57
ATOM     57  CG  TYR A   2      18.174  -4.110  36.425  0.00  0.00    -0.020 A 
ATOM     58  CD2 TYR A   2      19.299  -3.581  37.046  0.00  0.00    -0.001 A 
ATOM     59  CE2 TYR A   2      20.242  -4.393  37.601  0.00  0.00    +0.036 A 
ATOM     60  CZ  TYR A   2      20.071  -5.774  37.551  0.00  0.00    +0.134 A 
ATOM     61  CE1 TYR A   2      18.968  -6.335  36.927  0.00  0.00    +0.036 A 
ATOM     62  CD1 TYR A   2      18.034  -5.495  36.364  0.00  0.00    -0.001 A 
BRANCH  60  63
ATOM     63  OH  TYR A   2      21.024  -6.593  38.116  0.00  0.00    -0.506 OA
ATOM     64  HH  TYR A   2      21.896  -6.437  37.674  0.00  0.00    +0.292 HD
ENDBRANCH  60  63
ENDBRANCH  56  57
ENDBRANCH  40  56
ENDBRANCH  36  40
ENDBRANCH  35  37
ENDBRANCH   1  35
TORSDOF 27
REMARK  Name = ../refined-set-2016/2vwm/2vwm_pocket.pdb
REMARK  221 active torsions:
REMARK  status: ('A' for Active; 'I' for Inactive)
REMARK    1  A    between atoms: _1  and  _5
REMARK    2  A    between atoms: _5  and  _6
REMARK    3  A    between atoms: _5  and  _8
REMARK    4  A    between atoms: _8  and  _9
REMARK    5  A    between atoms: _12  and  _14
REMARK    6  A    between atoms: _14  and  _15
REMARK    7  A    between atoms: _14  and  _17
REMARK    8  A    between atoms: _20  and  _22
REMARK    9  A    between atoms: _22  and  _23
REMARK   10  A    between atoms: _22  and  _25
REMARK   11  A    between atoms: _25  and  _26
REMARK   12  A    between atoms: _31  and  _33
REMARK   13  A    between atoms: _33  and  _34
REMARK   14  A    between atoms: _33  and  _36
REMARK   15  A    between atoms: _36  and  _37
REMARK   16  A    between atoms: _37  and  _38
REMARK   17  A    between atoms: _43  and  _45
REMARK   18  A    between atoms: _45  and  _46
REMARK   19  A    between atoms: _45  and  _48
REMARK   20  A    between atoms: _48  and  _49
REMARK   21  A    between atoms: _52  and  _54
REMARK   22  A    between atoms: _54  and  _55
REMARK   23  A    between atoms: _54  and  _57
REMARK   24  A    between atoms: _57  and  _58
REMARK   25  A    between atoms: _58  and  _59
REMARK   26  A    between atoms: _59  and  _60
REMARK   27  A    between atoms: _60  and  _61
REMARK   28  A    between atoms: _65  and  _67
REMARK   29  A    between atoms: _67  and  _68
REMARK   30  A    between atoms: _67  and  _70
REMARK   31  A    between atoms: _70  and  _71
REMARK   32  A    between atoms: _71  and  _72
REMARK   33  A    between atoms: _75  and  _77
REMARK   34  A    between atoms: _77  and  _78
REMARK   35  A    between atoms: _77  and  _80
REMARK   36  A    between atoms: _80  and  _81
REMARK   37  A    between atoms: _84  and  _86
REMARK   38  A    between atoms: _86  and  _87
REMARK   39  A    between atoms: _86  and  _89
REMARK   40  A    between atoms: _89  and  _90
REMARK   41  A    between atoms: _95  and  _96
REMARK   42  A    between atoms: _98  and  _100
REMARK   43  A    between atoms: _100  and  _101
REMARK   44  A    between atoms: _100  and  _103
REMARK   45  A    between atoms: _103  and  _104
REMARK   46  A    between atoms: _107  and  _109
REMARK   47  A    between atoms: _109  and  _110
REMARK   48  A    between atoms: _109  and  _112
REMARK   49  A    between atoms: _112  and  _113
REMARK   50  A    between atoms: _116  and  _118
REMARK   51  A    between atoms: _118  and  _119
REMARK   52  A    between atoms: _118  and  _121
REMARK   53  A    between atoms: _124  and  _126
REMARK   54  A    between atoms: _126  and  _127
REMARK   55  A    between atoms: _126  and  _129
REMARK   56  A    between atoms: _129  and  _130
REMARK   57  A    between atoms: _130  and  _131
REMARK   58  A    between atoms: _131  and  _132
REMARK   59  A    between atoms: _141  and  _143
REMARK   60  A    between atoms: _143  and  _144
REMARK   61  A    between atoms: _143  and  _146
REMARK   62  A    between atoms: _146  and  _147
REMARK   63  A    between atoms: _152  and  _154
REMARK   64  A    between atoms: _154  and  _155
REMARK   65  A    between atoms: _154  and  _157
REMARK   66  A    between atoms: _157  and  _158
REMARK   67  A    between atoms: _158  and  _159
REMARK   68  A    between atoms: _162  and  _164
REMARK   69  A    between atoms: _164  and  _165
REMARK   70  A    between atoms: _164  and  _167
REMARK   71  A    between atoms: _167  and  _168
REMARK   72  A    between atoms: _168  and  _169
REMARK   73  A    between atoms: _169  and  _170
REMARK   74  A    between atoms: _170  and  _171
REMARK   75  A    between atoms: _175  and  _177
REMARK   76  A    between atoms: _177  and  _178
REMARK   77  A    between atoms: _180  and  _182
REMARK   78  A    between atoms: _182  and  _183
REMARK   79  A    between atoms: _182  and  _185
REMARK   80  A    between atoms: _188  and  _190
REMARK   81  A    between atoms: _190  and  _191
REMARK   82  A    between atoms: _190  and  _193
REMARK   83  A    between atoms: _193  and  _194
REMARK   84  A    between atoms: _196  and  _198
REMARK   85  A    between atoms: _198  and  _199
REMARK   86  A    between atoms: _198  and  _201
REMARK   87  A    between atoms: _201  and  _202
REMARK   88  A    between atoms: _204  and  _206
REMARK   89  A    between atoms: _206  and  _207
REMARK   90  A    between atoms: _206  and  _209
REMARK   91  A    between atoms: _209  and  _210
REMARK   92  A    between atoms: _216  and  _218
REMARK   93  A    between atoms: _218  and  _219
REMARK   94  A    between atoms: _218  and  _221
REMARK   95  A    between atoms: _221  and  _222
REMARK   96  A    between atoms: _225  and  _227
REMARK   97  A    between atoms: _227  and  _228
REMARK   98  A    between atoms: _227  and  _230
REMARK   99  A    between atoms: _230  and  _231
REMARK  100  A    between atoms: _234  and  _236
REMARK  101  A    between atoms: _236  and  _237
REMARK  102  A    between atoms: _236  and  _239
REMARK  103  A    between atoms: _239  and  _240
REMARK  104  A    between atoms: _243  and  _245
REMARK  105  A    between atoms: _245  and  _246
REMARK  106  A    between atoms: _245  and  _248
REMARK  107  A    between atoms: _248  and  _249
REMARK  108  A    between atoms: _249  and  _250
REMARK  109  A    between atoms: _252  and  _254
REMARK  110  A    between atoms: _254  and  _255
REMARK  111  A    between atoms: _254  and  _257
REMARK  112  A    between atoms: _257  and  _258
REMARK  113  A    between atoms: _264  and  _266
REMARK  114  A    between atoms: _266  and  _267
REMARK  115  A    between atoms: _266  and  _269
REMARK  116  A    between atoms: _271  and  _273
REMARK  117  A    between atoms: _273  and  _274
REMARK  118  A    between atoms: _277  and  _279
REMARK  119  A    between atoms: _279  and  _280
REMARK  120  A    between atoms: _282  and  _284
REMARK  121  A    between atoms: _284  and  _285
REMARK  122  A    between atoms: _284  and  _287
REMARK  123  A    between atoms: _287  and  _288
REMARK  124  A    between atoms: _288  and  _289
REMARK  125  A    between atoms: _292  and  _294
REMARK  126  A    between atoms: _294  and  _295
REMARK  127  A    between atoms: _294  and  _297
REMARK  128  A    between atoms: _297  and  _298
REMARK  129  A    between atoms: _301  and  _303
REMARK  130  A    between atoms: _303  and  _304
REMARK  131  A    between atoms: _307  and  _309
REMARK  132  A    between atoms: _309  and  _310
REMARK  133  A    between atoms: _309  and  _312
REMARK  134  A    between atoms: _312  and  _313
REMARK  135  A    between atoms: _313  and  _436
REMARK  136  A    between atoms: _314  and  _316
REMARK  137  A    between atoms: _316  and  _317
REMARK  138  A    between atoms: _316  and  _319
REMARK  139  A    between atoms: _319  and  _320
REMARK  140  A    between atoms: _320  and  _321
REMARK  141  A    between atoms: _326  and  _328
REMARK  142  A    between atoms: _328  and  _329
REMARK  143  A    between atoms: _331  and  _333
REMARK  144  A    between atoms: _333  and  _334
REMARK  145  A    between atoms: _333  and  _336
REMARK  146  A    between atoms: _336  and  _337
REMARK  147  A    between atoms: _340  and  _342
REMARK  148  A    between atoms: _342  and  _343
REMARK  149  A    between atoms: _342  and  _345
REMARK  150  A    between atoms: _345  and  _346
REMARK  151  A    between atoms: _348  and  _350
REMARK  152  A    between atoms: _350  and  _351
REMARK  153  A    between atoms: _353  and  _355
REMARK  154  A    between atoms: _355  and  _356
REMARK  155  A    between atoms: _358  and  _360
REMARK  156  A    between atoms: _360  and  _361
REMARK  157  A    between atoms: _360  and  _363
REMARK  158  A    between atoms: _363  and  _364
REMARK  159  A    between atoms: _369  and  _371
REMARK  160  A    between atoms: _371  and  _372
REMARK  161  A    between atoms: _371  and  _374
REMARK  162  A    between atoms: _374  and  _375
REMARK  163  A    between atoms: _378  and  _380
REMARK  164  A    between atoms: _380  and  _381
REMARK  165  A    between atoms: _380  and  _383
REMARK  166  A    between atoms: _386  and  _388
REMARK  167  A    between atoms: _388  and  _389
REMARK  168  A    between atoms: _388  and  _391
REMARK  169  A    between atoms: _391  and  _392
REMARK  170  A    between atoms: _394  and  _396
REMARK  171  A    between atoms: _396  and  _397
REMARK  172  A    between atoms: _396  and  _399
REMARK  173  A    between atoms: _399  and  _400
REMARK  174  A    between atoms: _410  and  _412
REMARK  175  A    between atoms: _412  and  _413
REMARK  176  A    between atoms: _415  and  _417
REMARK  177  A    between atoms: _417  and  _418
REMARK  178  A    between atoms: _417  and  _420
REMARK  179  A    between atoms: _420  and  _421
REMARK  180  A    between atoms: _421  and  _422
REMARK  181  A    between atoms: _425  and  _427
REMARK  182  A    between atoms: _427  and  _428
REMARK  183  A    between atoms: _430  and  _432
REMARK  184  A    between atoms: _432  and  _433
REMARK  185  A    between atoms: _432  and  _435
REMARK  186  A    between atoms: _435  and  _436
REMARK  187  A    between atoms: _437  and  _439
REMARK  188  A    between atoms: _439  and  _440
REMARK  189  A    between atoms: _443  and  _445
REMARK  190  A    between atoms: _445  and  _446
REMARK  191  A    between atoms: _445  and  _448
REMARK  192  A    between atoms: _448  and  _449
REMARK  193  A    between atoms: _449  and  _450
REMARK  194  A    between atoms: _450  and  _451
REMARK  195  A    between atoms: _460  and  _462
REMARK  196  A    between atoms: _462  and  _463
REMARK  197  A    between atoms: _462  and  _465
REMARK  198  A    between atoms: _465  and  _466
REMARK  199  A    between atoms: _466  and  _467
REMARK  200  A    between atoms: _467  and  _468
REMARK  201  A    between atoms: _468  and  _469
REMARK  202  A    between atoms: _473  and  _475
REMARK  203  A    between atoms: _475  and  _476
REMARK  204  A    between atoms: _475  and  _478
REMARK  205  A    between atoms: _478  and  _479
REMARK  206  A    between atoms: _484  and  _485
REMARK  207  A    between atoms: _487  and  _489
REMARK  208  A    between atoms: _489  and  _490
REMARK  209  A    between atoms: _492  and  _494
REMARK  210  A    between atoms: _494  and  _495
REMARK  211  A    between atoms: _494  and  _497
REMARK  212  A    between atoms: _497  and  _498
REMARK  213  A    between atoms: _501  and  _503
REMARK  214  A    between atoms: _503  and  _504
REMARK  215  A    between atoms: _503  and  _506
REMARK  216  A    between atoms: _506  and  _507
REMARK  217  A    between atoms: _512  and  _513
REMARK  218  A    between atoms: _515  and  _517
REMARK  219  A    between atoms: _517  and  _518
REMARK  220  A    between atoms: _517  and  _520
REMARK  221  A    between atoms: _520  and  _521
REMARK                            x       y       z     vdW  Elec       q    Type
REMARK                         _______ _______ _______ _____ _____    ______ ____
ROOT
ATOM      1  O   HOH     1       6.634   4.322  24.612  0.00  0.00    +0.000 OA
ENDROOT
TORSDOF 0
REMARK  Name = ../refined-set-2016/2vwm/2vwm_pocket.pdb
REMARK  221 active torsions:
REMARK  status: ('A' for Active; 'I' for Inactive)
REMARK    1  A    between atoms: _1  and  _5
REMARK    2  A    between atoms: _5  and  _6
REMARK    3  A    between atoms: _5  and  _8
REMARK    4  A    between atoms: _8  and  _9
REMARK    5  A    between atoms: _12  and  _14
REMARK    6  A    between atoms: _14  and  _15
REMARK    7  A    between atoms: _14  and  _17
REMARK    8  A    between atoms: _20  and  _22
REMARK    9  A    between atoms: _22  and  _23
REMARK   10  A    between atoms: _22  and  _25
REMARK   11  A    between atoms: _25  and  _26
REMARK   12  A    between atoms: _31  and  _33
REMARK   13  A    between atoms: _33  and  _34
REMARK   14  A    between atoms: _33  and  _36
REMARK   15  A    between atoms: _36  and  _37
REMARK   16  A    between atoms: _37  and  _38
REMARK   17  A    between atoms: _43  and  _45
REMARK   18  A    between atoms: _45  and  _46
REMARK   19  A    between atoms: _45  and  _48
REMARK   20  A    between atoms: _48  and  _49
REMARK   21  A    between atoms: _52  and  _54
REMARK   22  A    between atoms: _54  and  _55
REMARK   23  A    between atoms: _54  and  _57
REMARK   24  A    between atoms: _57  and  _58
REMARK   25  A    between atoms: _58  and  _59
REMARK   26  A    between atoms: _59  and  _60
REMARK   27  A    between atoms: _60  and  _61
REMARK   28  A    between atoms: _65  and  _67
REMARK   29  A    between atoms: _67  and  _68
REMARK   30  A    between atoms: _67  and  _70
REMARK   31  A    between atoms: _70  and  _71
REMARK   32  A    between atoms: _71  and  _72
REMARK   33  A    between atoms: _75  and  _77
REMARK   34  A    between atoms: _77  and  _78
REMARK   35  A    between atoms: _77  and  _80
REMARK   36  A    between atoms: _80  and  _81
REMARK   37  A    between atoms: _84  and  _86
REMARK   38  A    between atoms: _86  and  _87
REMARK   39  A    between atoms: _86  and  _89
REMARK   40  A    between atoms: _89  and  _90
REMARK   41  A    between atoms: _95  and  _96
REMARK   42  A    between atoms: _98  and  _100
REMARK   43  A    between atoms: _100  and  _101
REMARK   44  A    between atoms: _100  and  _103
REMARK   45  A    between atoms: _103  and  _104
REMARK   46  A    between atoms: _107  and  _109
REMARK   47  A    between atoms: _109  and  _110
REMARK   48  A    between atoms: _109  and  _112
REMARK   49  A    between atoms: _112  and  _113
REMARK   50  A    between atoms: _116  and  _118
REMARK   51  A    between atoms: _118  and  _119
REMARK   52  A    between atoms: _118  and  _121
REMARK   53  A    between atoms: _124  and  _126
REMARK   54  A    between atoms: _126  and  _127
REMARK   55  A    between atoms: _126  and  _129
REMARK   56  A    between atoms: _129  and  _130
REMARK   57  A    between atoms: _130  and  _131
REMARK   58  A    between atoms: _131  and  _132
REMARK   59  A    between atoms: _141  and  _143
REMARK   60  A    between atoms: _143  and  _144
REMARK   61  A    between atoms: _143  and  _146
REMARK   62  A    between atoms: _146  and  _147
REMARK   63  A    between atoms: _152  and  _154
REMARK   64  A    between atoms: _154  and  _155
REMARK   65  A    between atoms: _154  and  _157
REMARK   66  A    between atoms: _157  and  _158
REMARK   67  A    between atoms: _158  and  _159
REMARK   68  A    between atoms: _162  and  _164
REMARK   69  A    between atoms: _164  and  _165
REMARK   70  A    between atoms: _164  and  _167
REMARK   71  A    between atoms: _167  and  _168
REMARK   72  A    between atoms: _168  and  _169
REMARK   73  A    between atoms: _169  and  _170
REMARK   74  A    between atoms: _170  and  _171
REMARK   75  A    between atoms: _175  and  _177
REMARK   76  A    between atoms: _177  and  _178
REMARK   77  A    between atoms: _180  and  _182
REMARK   78  A    between atoms: _182  and  _183
REMARK   79  A    between atoms: _182  and  _185
REMARK   80  A    between atoms: _188  and  _190
REMARK   81  A    between atoms: _190  and  _191
REMARK   82  A    between atoms: _190  and  _193
REMARK   83  A    between atoms: _193  and  _194
REMARK   84  A    between atoms: _196  and  _198
REMARK   85  A    between atoms: _198  and  _199
REMARK   86  A    between atoms: _198  and  _201
REMARK   87  A    between atoms: _201  and  _202
REMARK   88  A    between atoms: _204  and  _206
REMARK   89  A    between atoms: _206  and  _207
REMARK   90  A    between atoms: _206  and  _209
REMARK   91  A    between atoms: _209  and  _210
REMARK   92  A    between atoms: _216  and  _218
REMARK   93  A    between atoms: _218  and  _219
REMARK   94  A    between atoms: _218  and  _221
REMARK   95  A    between atoms: _221  and  _222
REMARK   96  A    between atoms: _225  and  _227
REMARK   97  A    between atoms: _227  and  _228
REMARK   98  A    between atoms: _227  and  _230
REMARK   99  A    between atoms: _230  and  _231
REMARK  100  A    between atoms: _234  and  _236
REMARK  101  A    between atoms: _236  and  _237
REMARK  102  A    between atoms: _236  and  _239
REMARK  103  A    between atoms: _239  and  _240
REMARK  104  A    between atoms: _243  and  _245
REMARK  105  A    between atoms: _245  and  _246
REMARK  106  A    between atoms: _245  and  _248
REMARK  107  A    between atoms: _248  and  _249
REMARK  108  A    between atoms: _249  and  _250
REMARK  109  A    between atoms: _252  and  _254
REMARK  110  A    between atoms: _254  and  _255
REMARK  111  A    between atoms: _254  and  _257
REMARK  112  A    between atoms: _257  and  _258
REMARK  113  A    between atoms: _264  and  _266
REMARK  114  A    between atoms: _266  and  _267
REMARK  115  A    between atoms: _266  and  _269
REMARK  116  A    between atoms: _271  and  _273
REMARK  117  A    between atoms: _273  and  _274
REMARK  118  A    between atoms: _277  and  _279
REMARK  119  A    between atoms: _279  and  _280
REMARK  120  A    between atoms: _282  and  _284
REMARK  121  A    between atoms: _284  and  _285
REMARK  122  A    between atoms: _284  and  _287
REMARK  123  A    between atoms: _287  and  _288
REMARK  124  A    between atoms: _288  and  _289
REMARK  125  A    between atoms: _292  and  _294
REMARK  126  A    between atoms: _294  and  _295
REMARK  127  A    between atoms: _294  and  _297
REMARK  128  A    between atoms: _297  and  _298
REMARK  129  A    between atoms: _301  and  _303
REMARK  130  A    between atoms: _303  and  _304
REMARK  131  A    between atoms: _307  and  _309
REMARK  132  A    between atoms: _309  and  _310
REMARK  133  A    between atoms: _309  and  _312
REMARK  134  A    between atoms: _312  and  _313
REMARK  135  A    between atoms: _313  and  _436
REMARK  136  A    between atoms: _314  and  _316
REMARK  137  A    between atoms: _316  and  _317
REMARK  138  A    between atoms: _316  and  _319
REMARK  139  A    between atoms: _319  and  _320
REMARK  140  A    between atoms: _320  and  _321
REMARK  141  A    between atoms: _326  and  _328
REMARK  142  A    between atoms: _328  and  _329
REMARK  143  A    between atoms: _331  and  _333
REMARK  144  A    between atoms: _333  and  _334
REMARK  145  A    between atoms: _333  and  _336
REMARK  146  A    between atoms: _336  and  _337
REMARK  147  A    between atoms: _340  and  _342
REMARK  148  A    between atoms: _342  and  _343
REMARK  149  A    between atoms: _342  and  _345
REMARK  150  A    between atoms: _345  and  _346
REMARK  151  A    between atoms: _348  and  _350
REMARK  152  A    between atoms: _350  and  _351
REMARK  153  A    between atoms: _353  and  _355
REMARK  154  A    between atoms: _355  and  _356
REMARK  155  A    between atoms: _358  and  _360
REMARK  156  A    between atoms: _360  and  _361
REMARK  157  A    between atoms: _360  and  _363
REMARK  158  A    between atoms: _363  and  _364
REMARK  159  A    between atoms: _369  and  _371
REMARK  160  A    between atoms: _371  and  _372
REMARK  161  A    between atoms: _371  and  _374
REMARK  162  A    between atoms: _374  and  _375
REMARK  163  A    between atoms: _378  and  _380
REMARK  164  A    between atoms: _380  and  _381
REMARK  165  A    between atoms: _380  and  _383
REMARK  166  A    between atoms: _386  and  _388
REMARK  167  A    between atoms: _388  and  _389
REMARK  168  A    between atoms: _388  and  _391
REMARK  169  A    between atoms: _391  and  _392
REMARK  170  A    between atoms: _394  and  _396
REMARK  171  A    between atoms: _396  and  _397
REMARK  172  A    between atoms: _396  and  _399
REMARK  173  A    between atoms: _399  and  _400
REMARK  174  A    between atoms: _410  and  _412
REMARK  175  A    between atoms: _412  and  _413
REMARK  176  A    between atoms: _415  and  _417
REMARK  177  A    between atoms: _417  and  _418
REMARK  178  A    between atoms: _417  and  _420
REMARK  179  A    between atoms: _420  and  _421
REMARK  180  A    between atoms: _421  and  _422
REMARK  181  A    between atoms: _425  and  _427
REMARK  182  A    between atoms: _427  and  _428
REMARK  183  A    between atoms: _430  and  _432
REMARK  184  A    between atoms: _432  and  _433
REMARK  185  A    between atoms: _432  and  _435
REMARK  186  A    between atoms: _435  and  _436
REMARK  187  A    between atoms: _437  and  _439
REMARK  188  A    between atoms: _439  and  _440
REMARK  189  A    between atoms: _443  and  _445
REMARK  190  A    between atoms: _445  and  _446
REMARK  191  A    between atoms: _445  and  _448
REMARK  192  A    between atoms: _448  and  _449
REMARK  193  A    between atoms: _449  and  _450
REMARK  194  A    between atoms: _450  and  _451
REMARK  195  A    between atoms: _460  and  _462
REMARK  196  A    between atoms: _462  and  _463
REMARK  197  A    between atoms: _462  and  _465
REMARK  198  A    between atoms: _465  and  _466
REMARK  199  A    between atoms: _466  and  _467
REMARK  200  A    between atoms: _467  and  _468
REMARK  201  A    between atoms: _468  and  _469
REMARK  202  A    between atoms: _473  and  _475
REMARK  203  A    between atoms: _475  and  _476
REMARK  204  A    between atoms: _475  and  _478
REMARK  205  A    between atoms: _478  and  _479
REMARK  206  A    between atoms: _484  and  _485
REMARK  207  A    between atoms: _487  and  _489
REMARK  208  A    between atoms: _489  and  _490
REMARK  209  A    between atoms: _492  and  _494
REMARK  210  A    between atoms: _494  and  _495
REMARK  211  A    between atoms: _494  and  _497
REMARK  212  A    between atoms: _497  and  _498
REMARK  213  A    between atoms: _501  and  _503
REMARK  214  A    between atoms: _503  and  _504
REMARK  215  A    between atoms: _503  and  _506
REMARK  216  A    between atoms: _506  and  _507
REMARK  217  A    between atoms: _512  and  _513
REMARK  218  A    between atoms: _515  and  _517
REMARK  219  A    between atoms: _517  and  _518
REMARK  220  A    between atoms: _517  and  _520
REMARK  221  A    between atoms: _520  and  _521
REMARK                            x       y       z     vdW  Elec       q    Type
REMARK                         _______ _______ _______ _____ _____    ______ ____
ROOT
ATOM      1  O   HOH     1      17.602  13.087  39.799  0.00  0.00    +0.000 OA
ENDROOT
TORSDOF 0
REMARK  Name = ../refined-set-2016/2vwm/2vwm_pocket.pdb
REMARK  221 active torsions:
REMARK  status: ('A' for Active; 'I' for Inactive)
REMARK    1  A    between atoms: _1  and  _5
REMARK    2  A    between atoms: _5  and  _6
REMARK    3  A    between atoms: _5  and  _8
REMARK    4  A    between atoms: _8  and  _9
REMARK    5  A    between atoms: _12  and  _14
REMARK    6  A    between atoms: _14  and  _15
REMARK    7  A    between atoms: _14  and  _17
REMARK    8  A    between atoms: _20  and  _22
REMARK    9  A    between atoms: _22  and  _23
REMARK   10  A    between atoms: _22  and  _25
REMARK   11  A    between atoms: _25  and  _26
REMARK   12  A    between atoms: _31  and  _33
REMARK   13  A    between atoms: _33  and  _34
REMARK   14  A    between atoms: _33  and  _36
REMARK   15  A    between atoms: _36  and  _37
REMARK   16  A    between atoms: _37  and  _38
REMARK   17  A    between atoms: _43  and  _45
REMARK   18  A    between atoms: _45  and  _46
REMARK   19  A    between atoms: _45  and  _48
REMARK   20  A    between atoms: _48  and  _49
REMARK   21  A    between atoms: _52  and  _54
REMARK   22  A    between atoms: _54  and  _55
REMARK   23  A    between atoms: _54  and  _57
REMARK   24  A    between atoms: _57  and  _58
REMARK   25  A    between atoms: _58  and  _59
REMARK   26  A    between atoms: _59  and  _60
REMARK   27  A    between atoms: _60  and  _61
REMARK   28  A    between atoms: _65  and  _67
REMARK   29  A    between atoms: _67  and  _68
REMARK   30  A    between atoms: _67  and  _70
REMARK   31  A    between atoms: _70  and  _71
REMARK   32  A    between atoms: _71  and  _72
REMARK   33  A    between atoms: _75  and  _77
REMARK   34  A    between atoms: _77  and  _78
REMARK   35  A    between atoms: _77  and  _80
REMARK   36  A    between atoms: _80  and  _81
REMARK   37  A    between atoms: _84  and  _86
REMARK   38  A    between atoms: _86  and  _87
REMARK   39  A    between atoms: _86  and  _89
REMARK   40  A    between atoms: _89  and  _90
REMARK   41  A    between atoms: _95  and  _96
REMARK   42  A    between atoms: _98  and  _100
REMARK   43  A    between atoms: _100  and  _101
REMARK   44  A    between atoms: _100  and  _103
REMARK   45  A    between atoms: _103  and  _104
REMARK   46  A    between atoms: _107  and  _109
REMARK   47  A    between atoms: _109  and  _110
REMARK   48  A    between atoms: _109  and  _112
REMARK   49  A    between atoms: _112  and  _113
REMARK   50  A    between atoms: _116  and  _118
REMARK   51  A    between atoms: _118  and  _119
REMARK   52  A    between atoms: _118  and  _121
REMARK   53  A    between atoms: _124  and  _126
REMARK   54  A    between atoms: _126  and  _127
REMARK   55  A    between atoms: _126  and  _129
REMARK   56  A    between atoms: _129  and  _130
REMARK   57  A    between atoms: _130  and  _131
REMARK   58  A    between atoms: _131  and  _132
REMARK   59  A    between atoms: _141  and  _143
REMARK   60  A    between atoms: _143  and  _144
REMARK   61  A    between atoms: _143  and  _146
REMARK   62  A    between atoms: _146  and  _147
REMARK   63  A    between atoms: _152  and  _154
REMARK   64  A    between atoms: _154  and  _155
REMARK   65  A    between atoms: _154  and  _157
REMARK   66  A    between atoms: _157  and  _158
REMARK   67  A    between atoms: _158  and  _159
REMARK   68  A    between atoms: _162  and  _164
REMARK   69  A    between atoms: _164  and  _165
REMARK   70  A    between atoms: _164  and  _167
REMARK   71  A    between atoms: _167  and  _168
REMARK   72  A    between atoms: _168  and  _169
REMARK   73  A    between atoms: _169  and  _170
REMARK   74  A    between atoms: _170  and  _171
REMARK   75  A    between atoms: _175  and  _177
REMARK   76  A    between atoms: _177  and  _178
REMARK   77  A    between atoms: _180  and  _182
REMARK   78  A    between atoms: _182  and  _183
REMARK   79  A    between atoms: _182  and  _185
REMARK   80  A    between atoms: _188  and  _190
REMARK   81  A    between atoms: _190  and  _191
REMARK   82  A    between atoms: _190  and  _193
REMARK   83  A    between atoms: _193  and  _194
REMARK   84  A    between atoms: _196  and  _198
REMARK   85  A    between atoms: _198  and  _199
REMARK   86  A    between atoms: _198  and  _201
REMARK   87  A    between atoms: _201  and  _202
REMARK   88  A    between atoms: _204  and  _206
REMARK   89  A    between atoms: _206  and  _207
REMARK   90  A    between atoms: _206  and  _209
REMARK   91  A    between atoms: _209  and  _210
REMARK   92  A    between atoms: _216  and  _218
REMARK   93  A    between atoms: _218  and  _219
REMARK   94  A    between atoms: _218  and  _221
REMARK   95  A    between atoms: _221  and  _222
REMARK   96  A    between atoms: _225  and  _227
REMARK   97  A    between atoms: _227  and  _228
REMARK   98  A    between atoms: _227  and  _230
REMARK   99  A    between atoms: _230  and  _231
REMARK  100  A    between atoms: _234  and  _236
REMARK  101  A    between atoms: _236  and  _237
REMARK  102  A    between atoms: _236  and  _239
REMARK  103  A    between atoms: _239  and  _240
REMARK  104  A    between atoms: _243  and  _245
REMARK  105  A    between atoms: _245  and  _246
REMARK  106  A    between atoms: _245  and  _248
REMARK  107  A    between atoms: _248  and  _249
REMARK  108  A    between atoms: _249  and  _250
REMARK  109  A    between atoms: _252  and  _254
REMARK  110  A    between atoms: _254  and  _255
REMARK  111  A    between atoms: _254  and  _257
REMARK  112  A    between atoms: _257  and  _258
REMARK  113  A    between atoms: _264  and  _266
REMARK  114  A    between atoms: _266  and  _267
REMARK  115  A    between atoms: _266  and  _269
REMARK  116  A    between atoms: _271  and  _273
REMARK  117  A    between atoms: _273  and  _274
REMARK  118  A    between atoms: _277  and  _279
REMARK  119  A    between atoms: _279  and  _280
REMARK  120  A    between atoms: _282  and  _284
REMARK  121  A    between atoms: _284  and  _285
REMARK  122  A    between atoms: _284  and  _287
REMARK  123  A    between atoms: _287  and  _288
REMARK  124  A    between atoms: _288  and  _289
REMARK  125  A    between atoms: _292  and  _294
REMARK  126  A    between atoms: _294  and  _295
REMARK  127  A    between atoms: _294  and  _297
REMARK  128  A    between atoms: _297  and  _298
REMARK  129  A    between atoms: _301  and  _303
REMARK  130  A    between atoms: _303  and  _304
REMARK  131  A    between atoms: _307  and  _309
REMARK  132  A    between atoms: _309  and  _310
REMARK  133  A    between atoms: _309  and  _312
REMARK  134  A    between atoms: _312  and  _313
REMARK  135  A    between atoms: _313  and  _436
REMARK  136  A    between atoms: _314  and  _316
REMARK  137  A    between atoms: _316  and  _317
REMARK  138  A    between atoms: _316  and  _319
REMARK  139  A    between atoms: _319  and  _320
REMARK  140  A    between atoms: _320  and  _321
REMARK  141  A    between atoms: _326  and  _328
REMARK  142  A    between atoms: _328  and  _329
REMARK  143  A    between atoms: _331  and  _333
REMARK  144  A    between atoms: _333  and  _334
REMARK  145  A    between atoms: _333  and  _336
REMARK  146  A    between atoms: _336  and  _337
REMARK  147  A    between atoms: _340  and  _342
REMARK  148  A    between atoms: _342  and  _343
REMARK  149  A    between atoms: _342  and  _345
REMARK  150  A    between atoms: _345  and  _346
REMARK  151  A    between atoms: _348  and  _350
REMARK  152  A    between atoms: _350  and  _351
REMARK  153  A    between atoms: _353  and  _355
REMARK  154  A    between atoms: _355  and  _356
REMARK  155  A    between atoms: _358  and  _360
REMARK  156  A    between atoms: _360  and  _361
REMARK  157  A    between atoms: _360  and  _363
REMARK  158  A    between atoms: _363  and  _364
REMARK  159  A    between atoms: _369  and  _371
REMARK  160  A    between atoms: _371  and  _372
REMARK  161  A    between atoms: _371  and  _374
REMARK  162  A    between atoms: _374  and  _375
REMARK  163  A    between atoms: _378  and  _380
REMARK  164  A    between atoms: _380  and  _381
REMARK  165  A    between atoms: _380  and  _383
REMARK  166  A    between atoms: _386  and  _388
REMARK  167  A    between atoms: _388  and  _389
REMARK  168  A    between atoms: _388  and  _391
REMARK  169  A    between atoms: _391  and  _392
REMARK  170  A    between atoms: _394  and  _396
REMARK  171  A    between atoms: _396  and  _397
REMARK  172  A    between atoms: _396  and  _399
REMARK  173  A    between atoms: _399  and  _400
REMARK  174  A    between atoms: _410  and  _412
REMARK  175  A    between atoms: _412  and  _413
REMARK  176  A    between atoms: _415  and  _417
REMARK  177  A    between atoms: _417  and  _418
REMARK  178  A    between atoms: _417  and  _420
REMARK  179  A    between atoms: _420  and  _421
REMARK  180  A    between atoms: _421  and  _422
REMARK  181  A    between atoms: _425  and  _427
REMARK  182  A    between atoms: _427  and  _428
REMARK  183  A    between atoms: _430  and  _432
REMARK  184  A    between atoms: _432  and  _433
REMARK  185  A    between atoms: _432  and  _435
REMARK  186  A    between atoms: _435  and  _436
REMARK  187  A    between atoms: _437  and  _439
REMARK  188  A    between atoms: _439  and  _440
REMARK  189  A    between atoms: _443  and  _445
REMARK  190  A    between atoms: _445  and  _446
REMARK  191  A    between atoms: _445  and  _448
REMARK  192  A    between atoms: _448  and  _449
REMARK  193  A    between atoms: _449  and  _450
REMARK  194  A    between atoms: _450  and  _451
REMARK  195  A    between atoms: _460  and  _462
REMARK  196  A    between atoms: _462  and  _463
REMARK  197  A    between atoms: _462  and  _465
REMARK  198  A    between atoms: _465  and  _466
REMARK  199  A    between atoms: _466  and  _467
REMARK  200  A    between atoms: _467  and  _468
REMARK  201  A    between atoms: _468  and  _469
REMARK  202  A    between atoms: _473  and  _475
REMARK  203  A    between atoms: _475  and  _476
REMARK  204  A    between atoms: _475  and  _478
REMARK  205  A    between atoms: _478  and  _479
REMARK  206  A    between atoms: _484  and  _485
REMARK  207  A    between atoms: _487  and  _489
REMARK  208  A    between atoms: _489  and  _490
REMARK  209  A    between atoms: _492  and  _494
REMARK  210  A    between atoms: _494  and  _495
REMARK  211  A    between atoms: _494  and  _497
REMARK  212  A    between atoms: _497  and  _498
REMARK  213  A    between atoms: _501  and  _503
REMARK  214  A    between atoms: _503  and  _504
REMARK  215  A    between atoms: _503  and  _506
REMARK  216  A    between atoms: _506  and  _507
REMARK  217  A    between atoms: _512  and  _513
REMARK  218  A    between atoms: _515  and  _517
REMARK  219  A    between atoms: _517  and  _518
REMARK  220  A    between atoms: _517  and  _520
REMARK  221  A    between atoms: _520  and  _521
REMARK                            x       y       z     vdW  Elec       q    Type
REMARK                         _______ _______ _______ _____ _____    ______ ____
ROOT
ATOM      1  O   HOH     1      18.882  12.987  36.697  0.00  0.00    +0.000 OA
ENDROOT
TORSDOF 0
REMARK  Name = ../refined-set-2016/2vwm/2vwm_pocket.pdb
REMARK  221 active torsions:
REMARK  status: ('A' for Active; 'I' for Inactive)
REMARK    1  A    between atoms: _1  and  _5
REMARK    2  A    between atoms: _5  and  _6
REMARK    3  A    between atoms: _5  and  _8
REMARK    4  A    between atoms: _8  and  _9
REMARK    5  A    between atoms: _12  and  _14
REMARK    6  A    between atoms: _14  and  _15
REMARK    7  A    between atoms: _14  and  _17
REMARK    8  A    between atoms: _20  and  _22
REMARK    9  A    between atoms: _22  and  _23
REMARK   10  A    between atoms: _22  and  _25
REMARK   11  A    between atoms: _25  and  _26
REMARK   12  A    between atoms: _31  and  _33
REMARK   13  A    between atoms: _33  and  _34
REMARK   14  A    between atoms: _33  and  _36
REMARK   15  A    between atoms: _36  and  _37
REMARK   16  A    between atoms: _37  and  _38
REMARK   17  A    between atoms: _43  and  _45
REMARK   18  A    between atoms: _45  and  _46
REMARK   19  A    between atoms: _45  and  _48
REMARK   20  A    between atoms: _48  and  _49
REMARK   21  A    between atoms: _52  and  _54
REMARK   22  A    between atoms: _54  and  _55
REMARK   23  A    between atoms: _54  and  _57
REMARK   24  A    between atoms: _57  and  _58
REMARK   25  A    between atoms: _58  and  _59
REMARK   26  A    between atoms: _59  and  _60
REMARK   27  A    between atoms: _60  and  _61
REMARK   28  A    between atoms: _65  and  _67
REMARK   29  A    between atoms: _67  and  _68
REMARK   30  A    between atoms: _67  and  _70
REMARK   31  A    between atoms: _70  and  _71
REMARK   32  A    between atoms: _71  and  _72
REMARK   33  A    between atoms: _75  and  _77
REMARK   34  A    between atoms: _77  and  _78
REMARK   35  A    between atoms: _77  and  _80
REMARK   36  A    between atoms: _80  and  _81
REMARK   37  A    between atoms: _84  and  _86
REMARK   38  A    between atoms: _86  and  _87
REMARK   39  A    between atoms: _86  and  _89
REMARK   40  A    between atoms: _89  and  _90
REMARK   41  A    between atoms: _95  and  _96
REMARK   42  A    between atoms: _98  and  _100
REMARK   43  A    between atoms: _100  and  _101
REMARK   44  A    between atoms: _100  and  _103
REMARK   45  A    between atoms: _103  and  _104
REMARK   46  A    between atoms: _107  and  _109
REMARK   47  A    between atoms: _109  and  _110
REMARK   48  A    between atoms: _109  and  _112
REMARK   49  A    between atoms: _112  and  _113
REMARK   50  A    between atoms: _116  and  _118
REMARK   51  A    between atoms: _118  and  _119
REMARK   52  A    between atoms: _118  and  _121
REMARK   53  A    between atoms: _124  and  _126
REMARK   54  A    between atoms: _126  and  _127
REMARK   55  A    between atoms: _126  and  _129
REMARK   56  A    between atoms: _129  and  _130
REMARK   57  A    between atoms: _130  and  _131
REMARK   58  A    between atoms: _131  and  _132
REMARK   59  A    between atoms: _141  and  _143
REMARK   60  A    between atoms: _143  and  _144
REMARK   61  A    between atoms: _143  and  _146
REMARK   62  A    between atoms: _146  and  _147
REMARK   63  A    between atoms: _152  and  _154
REMARK   64  A    between atoms: _154  and  _155
REMARK   65  A    between atoms: _154  and  _157
REMARK   66  A    between atoms: _157  and  _158
REMARK   67  A    between atoms: _158  and  _159
REMARK   68  A    between atoms: _162  and  _164
REMARK   69  A    between atoms: _164  and  _165
REMARK   70  A    between atoms: _164  and  _167
REMARK   71  A    between atoms: _167  and  _168
REMARK   72  A    between atoms: _168  and  _169
REMARK   73  A    between atoms: _169  and  _170
REMARK   74  A    between atoms: _170  and  _171
REMARK   75  A    between atoms: _175  and  _177
REMARK   76  A    between atoms: _177  and  _178
REMARK   77  A    between atoms: _180  and  _182
REMARK   78  A    between atoms: _182  and  _183
REMARK   79  A    between atoms: _182  and  _185
REMARK   80  A    between atoms: _188  and  _190
REMARK   81  A    between atoms: _190  and  _191
REMARK   82  A    between atoms: _190  and  _193
REMARK   83  A    between atoms: _193  and  _194
REMARK   84  A    between atoms: _196  and  _198
REMARK   85  A    between atoms: _198  and  _199
REMARK   86  A    between atoms: _198  and  _201
REMARK   87  A    between atoms: _201  and  _202
REMARK   88  A    between atoms: _204  and  _206
REMARK   89  A    between atoms: _206  and  _207
REMARK   90  A    between atoms: _206  and  _209
REMARK   91  A    between atoms: _209  and  _210
REMARK   92  A    between atoms: _216  and  _218
REMARK   93  A    between atoms: _218  and  _219
REMARK   94  A    between atoms: _218  and  _221
REMARK   95  A    between atoms: _221  and  _222
REMARK   96  A    between atoms: _225  and  _227
REMARK   97  A    between atoms: _227  and  _228
REMARK   98  A    between atoms: _227  and  _230
REMARK   99  A    between atoms: _230  and  _231
REMARK  100  A    between atoms: _234  and  _236
REMARK  101  A    between atoms: _236  and  _237
REMARK  102  A    between atoms: _236  and  _239
REMARK  103  A    between atoms: _239  and  _240
REMARK  104  A    between atoms: _243  and  _245
REMARK  105  A    between atoms: _245  and  _246
REMARK  106  A    between atoms: _245  and  _248
REMARK  107  A    between atoms: _248  and  _249
REMARK  108  A    between atoms: _249  and  _250
REMARK  109  A    between atoms: _252  and  _254
REMARK  110  A    between atoms: _254  and  _255
REMARK  111  A    between atoms: _254  and  _257
REMARK  112  A    between atoms: _257  and  _258
REMARK  113  A    between atoms: _264  and  _266
REMARK  114  A    between atoms: _266  and  _267
REMARK  115  A    between atoms: _266  and  _269
REMARK  116  A    between atoms: _271  and  _273
REMARK  117  A    between atoms: _273  and  _274
REMARK  118  A    between atoms: _277  and  _279
REMARK  119  A    between atoms: _279  and  _280
REMARK  120  A    between atoms: _282  and  _284
REMARK  121  A    between atoms: _284  and  _285
REMARK  122  A    between atoms: _284  and  _287
REMARK  123  A    between atoms: _287  and  _288
REMARK  124  A    between atoms: _288  and  _289
REMARK  125  A    between atoms: _292  and  _294
REMARK  126  A    between atoms: _294  and  _295
REMARK  127  A    between atoms: _294  and  _297
REMARK  128  A    between atoms: _297  and  _298
REMARK  129  A    between atoms: _301  and  _303
REMARK  130  A    between atoms: _303  and  _304
REMARK  131  A    between atoms: _307  and  _309
REMARK  132  A    between atoms: _309  and  _310
REMARK  133  A    between atoms: _309  and  _312
REMARK  134  A    between atoms: _312  and  _313
REMARK  135  A    between atoms: _313  and  _436
REMARK  136  A    between atoms: _314  and  _316
REMARK  137  A    between atoms: _316  and  _317
REMARK  138  A    between atoms: _316  and  _319
REMARK  139  A    between atoms: _319  and  _320
REMARK  140  A    between atoms: _320  and  _321
REMARK  141  A    between atoms: _326  and  _328
REMARK  142  A    between atoms: _328  and  _329
REMARK  143  A    between atoms: _331  and  _333
REMARK  144  A    between atoms: _333  and  _334
REMARK  145  A    between atoms: _333  and  _336
REMARK  146  A    between atoms: _336  and  _337
REMARK  147  A    between atoms: _340  and  _342
REMARK  148  A    between atoms: _342  and  _343
REMARK  149  A    between atoms: _342  and  _345
REMARK  150  A    between atoms: _345  and  _346
REMARK  151  A    between atoms: _348  and  _350
REMARK  152  A    between atoms: _350  and  _351
REMARK  153  A    between atoms: _353  and  _355
REMARK  154  A    between atoms: _355  and  _356
REMARK  155  A    between atoms: _358  and  _360
REMARK  156  A    between atoms: _360  and  _361
REMARK  157  A    between atoms: _360  and  _363
REMARK  158  A    between atoms: _363  and  _364
REMARK  159  A    between atoms: _369  and  _371
REMARK  160  A    between atoms: _371  and  _372
REMARK  161  A    between atoms: _371  and  _374
REMARK  162  A    between atoms: _374  and  _375
REMARK  163  A    between atoms: _378  and  _380
REMARK  164  A    between atoms: _380  and  _381
REMARK  165  A    between atoms: _380  and  _383
REMARK  166  A    between atoms: _386  and  _388
REMARK  167  A    between atoms: _388  and  _389
REMARK  168  A    between atoms: _388  and  _391
REMARK  169  A    between atoms: _391  and  _392
REMARK  170  A    between atoms: _394  and  _396
REMARK  171  A    between atoms: _396  and  _397
REMARK  172  A    between atoms: _396  and  _399
REMARK  173  A    between atoms: _399  and  _400
REMARK  174  A    between atoms: _410  and  _412
REMARK  175  A    between atoms: _412  and  _413
REMARK  176  A    between atoms: _415  and  _417
REMARK  177  A    between atoms: _417  and  _418
REMARK  178  A    between atoms: _417  and  _420
REMARK  179  A    between atoms: _420  and  _421
REMARK  180  A    between atoms: _421  and  _422
REMARK  181  A    between atoms: _425  and  _427
REMARK  182  A    between atoms: _427  and  _428
REMARK  183  A    between atoms: _430  and  _432
REMARK  184  A    between atoms: _432  and  _433
REMARK  185  A    between atoms: _432  and  _435
REMARK  186  A    between atoms: _435  and  _436
REMARK  187  A    between atoms: _437  and  _439
REMARK  188  A    between atoms: _439  and  _440
REMARK  189  A    between atoms: _443  and  _445
REMARK  190  A    between atoms: _445  and  _446
REMARK  191  A    between atoms: _445  and  _448
REMARK  192  A    between atoms: _448  and  _449
REMARK  193  A    between atoms: _449  and  _450
REMARK  194  A    between atoms: _450  and  _451
REMARK  195  A    between atoms: _460  and  _462
REMARK  196  A    between atoms: _462  and  _463
REMARK  197  A    between atoms: _462  and  _465
REMARK  198  A    between atoms: _465  and  _466
REMARK  199  A    between atoms: _466  and  _467
REMARK  200  A    between atoms: _467  and  _468
REMARK  201  A    between atoms: _468  and  _469
REMARK  202  A    between atoms: _473  and  _475
REMARK  203  A    between atoms: _475  and  _476
REMARK  204  A    between atoms: _475  and  _478
REMARK  205  A    between atoms: _478  and  _479
REMARK  206  A    between atoms: _484  and  _485
REMARK  207  A    between atoms: _487  and  _489
REMARK  208  A    between atoms: _489  and  _490
REMARK  209  A    between atoms: _492  and  _494
REMARK  210  A    between atoms: _494  and  _495
REMARK  211  A    between atoms: _494  and  _497
REMARK  212  A    between atoms: _497  and  _498
REMARK  213  A    between atoms: _501  and  _503
REMARK  214  A    between atoms: _503  and  _504
REMARK  215  A    between atoms: _503  and  _506
REMARK  216  A    between atoms: _506  and  _507
REMARK  217  A    between atoms: _512  and  _513
REMARK  218  A    between atoms: _515  and  _517
REMARK  219  A    between atoms: _517  and  _518
REMARK  220  A    between atoms: _517  and  _520
REMARK  221  A    between atoms: _520  and  _521
REMARK                            x       y       z     vdW  Elec       q    Type
REMARK                         _______ _______ _______ _____ _____    ______ ____
ROOT
ATOM      1  O   HOH     1      17.153  11.056  37.663  0.00  0.00    +0.000 OA
ENDROOT
TORSDOF 0
REMARK  Name = ../refined-set-2016/2vwm/2vwm_pocket.pdb
REMARK  221 active torsions:
REMARK  status: ('A' for Active; 'I' for Inactive)
REMARK    1  A    between atoms: _1  and  _5
REMARK    2  A    between atoms: _5  and  _6
REMARK    3  A    between atoms: _5  and  _8
REMARK    4  A    between atoms: _8  and  _9
REMARK    5  A    between atoms: _12  and  _14
REMARK    6  A    between atoms: _14  and  _15
REMARK    7  A    between atoms: _14  and  _17
REMARK    8  A    between atoms: _20  and  _22
REMARK    9  A    between atoms: _22  and  _23
REMARK   10  A    between atoms: _22  and  _25
REMARK   11  A    between atoms: _25  and  _26
REMARK   12  A    between atoms: _31  and  _33
REMARK   13  A    between atoms: _33  and  _34
REMARK   14  A    between atoms: _33  and  _36
REMARK   15  A    between atoms: _36  and  _37
REMARK   16  A    between atoms: _37  and  _38
REMARK   17  A    between atoms: _43  and  _45
REMARK   18  A    between atoms: _45  and  _46
REMARK   19  A    between atoms: _45  and  _48
REMARK   20  A    between atoms: _48  and  _49
REMARK   21  A    between atoms: _52  and  _54
REMARK   22  A    between atoms: _54  and  _55
REMARK   23  A    between atoms: _54  and  _57
REMARK   24  A    between atoms: _57  and  _58
REMARK   25  A    between atoms: _58  and  _59
REMARK   26  A    between atoms: _59  and  _60
REMARK   27  A    between atoms: _60  and  _61
REMARK   28  A    between atoms: _65  and  _67
REMARK   29  A    between atoms: _67  and  _68
REMARK   30  A    between atoms: _67  and  _70
REMARK   31  A    between atoms: _70  and  _71
REMARK   32  A    between atoms: _71  and  _72
REMARK   33  A    between atoms: _75  and  _77
REMARK   34  A    between atoms: _77  and  _78
REMARK   35  A    between atoms: _77  and  _80
REMARK   36  A    between atoms: _80  and  _81
REMARK   37  A    between atoms: _84  and  _86
REMARK   38  A    between atoms: _86  and  _87
REMARK   39  A    between atoms: _86  and  _89
REMARK   40  A    between atoms: _89  and  _90
REMARK   41  A    between atoms: _95  and  _96
REMARK   42  A    between atoms: _98  and  _100
REMARK   43  A    between atoms: _100  and  _101
REMARK   44  A    between atoms: _100  and  _103
REMARK   45  A    between atoms: _103  and  _104
REMARK   46  A    between atoms: _107  and  _109
REMARK   47  A    between atoms: _109  and  _110
REMARK   48  A    between atoms: _109  and  _112
REMARK   49  A    between atoms: _112  and  _113
REMARK   50  A    between atoms: _116  and  _118
REMARK   51  A    between atoms: _118  and  _119
REMARK   52  A    between atoms: _118  and  _121
REMARK   53  A    between atoms: _124  and  _126
REMARK   54  A    between atoms: _126  and  _127
REMARK   55  A    between atoms: _126  and  _129
REMARK   56  A    between atoms: _129  and  _130
REMARK   57  A    between atoms: _130  and  _131
REMARK   58  A    between atoms: _131  and  _132
REMARK   59  A    between atoms: _141  and  _143
REMARK   60  A    between atoms: _143  and  _144
REMARK   61  A    between atoms: _143  and  _146
REMARK   62  A    between atoms: _146  and  _147
REMARK   63  A    between atoms: _152  and  _154
REMARK   64  A    between atoms: _154  and  _155
REMARK   65  A    between atoms: _154  and  _157
REMARK   66  A    between atoms: _157  and  _158
REMARK   67  A    between atoms: _158  and  _159
REMARK   68  A    between atoms: _162  and  _164
REMARK   69  A    between atoms: _164  and  _165
REMARK   70  A    between atoms: _164  and  _167
REMARK   71  A    between atoms: _167  and  _168
REMARK   72  A    between atoms: _168  and  _169
REMARK   73  A    between atoms: _169  and  _170
REMARK   74  A    between atoms: _170  and  _171
REMARK   75  A    between atoms: _175  and  _177
REMARK   76  A    between atoms: _177  and  _178
REMARK   77  A    between atoms: _180  and  _182
REMARK   78  A    between atoms: _182  and  _183
REMARK   79  A    between atoms: _182  and  _185
REMARK   80  A    between atoms: _188  and  _190
REMARK   81  A    between atoms: _190  and  _191
REMARK   82  A    between atoms: _190  and  _193
REMARK   83  A    between atoms: _193  and  _194
REMARK   84  A    between atoms: _196  and  _198
REMARK   85  A    between atoms: _198  and  _199
REMARK   86  A    between atoms: _198  and  _201
REMARK   87  A    between atoms: _201  and  _202
REMARK   88  A    between atoms: _204  and  _206
REMARK   89  A    between atoms: _206  and  _207
REMARK   90  A    between atoms: _206  and  _209
REMARK   91  A    between atoms: _209  and  _210
REMARK   92  A    between atoms: _216  and  _218
REMARK   93  A    between atoms: _218  and  _219
REMARK   94  A    between atoms: _218  and  _221
REMARK   95  A    between atoms: _221  and  _222
REMARK   96  A    between atoms: _225  and  _227
REMARK   97  A    between atoms: _227  and  _228
REMARK   98  A    between atoms: _227  and  _230
REMARK   99  A    between atoms: _230  and  _231
REMARK  100  A    between atoms: _234  and  _236
REMARK  101  A    between atoms: _236  and  _237
REMARK  102  A    between atoms: _236  and  _239
REMARK  103  A    between atoms: _239  and  _240
REMARK  104  A    between atoms: _243  and  _245
REMARK  105  A    between atoms: _245  and  _246
REMARK  106  A    between atoms: _245  and  _248
REMARK  107  A    between atoms: _248  and  _249
REMARK  108  A    between atoms: _249  and  _250
REMARK  109  A    between atoms: _252  and  _254
REMARK  110  A    between atoms: _254  and  _255
REMARK  111  A    between atoms: _254  and  _257
REMARK  112  A    between atoms: _257  and  _258
REMARK  113  A    between atoms: _264  and  _266
REMARK  114  A    between atoms: _266  and  _267
REMARK  115  A    between atoms: _266  and  _269
REMARK  116  A    between atoms: _271  and  _273
REMARK  117  A    between atoms: _273  and  _274
REMARK  118  A    between atoms: _277  and  _279
REMARK  119  A    between atoms: _279  and  _280
REMARK  120  A    between atoms: _282  and  _284
REMARK  121  A    between atoms: _284  and  _285
REMARK  122  A    between atoms: _284  and  _287
REMARK  123  A    between atoms: _287  and  _288
REMARK  124  A    between atoms: _288  and  _289
REMARK  125  A    between atoms: _292  and  _294
REMARK  126  A    between atoms: _294  and  _295
REMARK  127  A    between atoms: _294  and  _297
REMARK  128  A    between atoms: _297  and  _298
REMARK  129  A    between atoms: _301  and  _303
REMARK  130  A    between atoms: _303  and  _304
REMARK  131  A    between atoms: _307  and  _309
REMARK  132  A    between atoms: _309  and  _310
REMARK  133  A    between atoms: _309  and  _312
REMARK  134  A    between atoms: _312  and  _313
REMARK  135  A    between atoms: _313  and  _436
REMARK  136  A    between atoms: _314  and  _316
REMARK  137  A    between atoms: _316  and  _317
REMARK  138  A    between atoms: _316  and  _319
REMARK  139  A    between atoms: _319  and  _320
REMARK  140  A    between atoms: _320  and  _321
REMARK  141  A    between atoms: _326  and  _328
REMARK  142  A    between atoms: _328  and  _329
REMARK  143  A    between atoms: _331  and  _333
REMARK  144  A    between atoms: _333  and  _334
REMARK  145  A    between atoms: _333  and  _336
REMARK  146  A    between atoms: _336  and  _337
REMARK  147  A    between atoms: _340  and  _342
REMARK  148  A    between atoms: _342  and  _343
REMARK  149  A    between atoms: _342  and  _345
REMARK  150  A    between atoms: _345  and  _346
REMARK  151  A    between atoms: _348  and  _350
REMARK  152  A    between atoms: _350  and  _351
REMARK  153  A    between atoms: _353  and  _355
REMARK  154  A    between atoms: _355  and  _356
REMARK  155  A    between atoms: _358  and  _360
REMARK  156  A    between atoms: _360  and  _361
REMARK  157  A    between atoms: _360  and  _363
REMARK  158  A    between atoms: _363  and  _364
REMARK  159  A    between atoms: _369  and  _371
REMARK  160  A    between atoms: _371  and  _372
REMARK  161  A    between atoms: _371  and  _374
REMARK  162  A    between atoms: _374  and  _375
REMARK  163  A    between atoms: _378  and  _380
REMARK  164  A    between atoms: _380  and  _381
REMARK  165  A    between atoms: _380  and  _383
REMARK  166  A    between atoms: _386  and  _388
REMARK  167  A    between atoms: _388  and  _389
REMARK  168  A    between atoms: _388  and  _391
REMARK  169  A    between atoms: _391  and  _392
REMARK  170  A    between atoms: _394  and  _396
REMARK  171  A    between atoms: _396  and  _397
REMARK  172  A    between atoms: _396  and  _399
REMARK  173  A    between atoms: _399  and  _400
REMARK  174  A    between atoms: _410  and  _412
REMARK  175  A    between atoms: _412  and  _413
REMARK  176  A    between atoms: _415  and  _417
REMARK  177  A    between atoms: _417  and  _418
REMARK  178  A    between atoms: _417  and  _420
REMARK  179  A    between atoms: _420  and  _421
REMARK  180  A    between atoms: _421  and  _422
REMARK  181  A    between atoms: _425  and  _427
REMARK  182  A    between atoms: _427  and  _428
REMARK  183  A    between atoms: _430  and  _432
REMARK  184  A    between atoms: _432  and  _433
REMARK  185  A    between atoms: _432  and  _435
REMARK  186  A    between atoms: _435  and  _436
REMARK  187  A    between atoms: _437  and  _439
REMARK  188  A    between atoms: _439  and  _440
REMARK  189  A    between atoms: _443  and  _445
REMARK  190  A    between atoms: _445  and  _446
REMARK  191  A    between atoms: _445  and  _448
REMARK  192  A    between atoms: _448  and  _449
REMARK  193  A    between atoms: _449  and  _450
REMARK  194  A    between atoms: _450  and  _451
REMARK  195  A    between atoms: _460  and  _462
REMARK  196  A    between atoms: _462  and  _463
REMARK  197  A    between atoms: _462  and  _465
REMARK  198  A    between atoms: _465  and  _466
REMARK  199  A    between atoms: _466  and  _467
REMARK  200  A    between atoms: _467  and  _468
REMARK  201  A    between atoms: _468  and  _469
REMARK  202  A    between atoms: _473  and  _475
REMARK  203  A    between atoms: _475  and  _476
REMARK  204  A    between atoms: _475  and  _478
REMARK  205  A    between atoms: _478  and  _479
REMARK  206  A    between atoms: _484  and  _485
REMARK  207  A    between atoms: _487  and  _489
REMARK  208  A    between atoms: _489  and  _490
REMARK  209  A    between atoms: _492  and  _494
REMARK  210  A    between atoms: _494  and  _495
REMARK  211  A    between atoms: _494  and  _497
REMARK  212  A    between atoms: _497  and  _498
REMARK  213  A    between atoms: _501  and  _503
REMARK  214  A    between atoms: _503  and  _504
REMARK  215  A    between atoms: _503  and  _506
REMARK  216  A    between atoms: _506  and  _507
REMARK  217  A    between atoms: _512  and  _513
REMARK  218  A    between atoms: _515  and  _517
REMARK  219  A    between atoms: _517  and  _518
REMARK  220  A    between atoms: _517  and  _520
REMARK  221  A    between atoms: _520  and  _521
REMARK                            x       y       z     vdW  Elec       q    Type
REMARK                         _______ _______ _______ _____ _____    ______ ____
ROOT
ATOM      1  O   HOH     1      10.966   7.634  36.396  0.00  0.00    +0.000 OA
ENDROOT
TORSDOF 0
REMARK  Name = ../refined-set-2016/2vwm/2vwm_pocket.pdb
REMARK  221 active torsions:
REMARK  status: ('A' for Active; 'I' for Inactive)
REMARK    1  A    between atoms: _1  and  _5
REMARK    2  A    between atoms: _5  and  _6
REMARK    3  A    between atoms: _5  and  _8
REMARK    4  A    between atoms: _8  and  _9
REMARK    5  A    between atoms: _12  and  _14
REMARK    6  A    between atoms: _14  and  _15
REMARK    7  A    between atoms: _14  and  _17
REMARK    8  A    between atoms: _20  and  _22
REMARK    9  A    between atoms: _22  and  _23
REMARK   10  A    between atoms: _22  and  _25
REMARK   11  A    between atoms: _25  and  _26
REMARK   12  A    between atoms: _31  and  _33
REMARK   13  A    between atoms: _33  and  _34
REMARK   14  A    between atoms: _33  and  _36
REMARK   15  A    between atoms: _36  and  _37
REMARK   16  A    between atoms: _37  and  _38
REMARK   17  A    between atoms: _43  and  _45
REMARK   18  A    between atoms: _45  and  _46
REMARK   19  A    between atoms: _45  and  _48
REMARK   20  A    between atoms: _48  and  _49
REMARK   21  A    between atoms: _52  and  _54
REMARK   22  A    between atoms: _54  and  _55
REMARK   23  A    between atoms: _54  and  _57
REMARK   24  A    between atoms: _57  and  _58
REMARK   25  A    between atoms: _58  and  _59
REMARK   26  A    between atoms: _59  and  _60
REMARK   27  A    between atoms: _60  and  _61
REMARK   28  A    between atoms: _65  and  _67
REMARK   29  A    between atoms: _67  and  _68
REMARK   30  A    between atoms: _67  and  _70
REMARK   31  A    between atoms: _70  and  _71
REMARK   32  A    between atoms: _71  and  _72
REMARK   33  A    between atoms: _75  and  _77
REMARK   34  A    between atoms: _77  and  _78
REMARK   35  A    between atoms: _77  and  _80
REMARK   36  A    between atoms: _80  and  _81
REMARK   37  A    between atoms: _84  and  _86
REMARK   38  A    between atoms: _86  and  _87
REMARK   39  A    between atoms: _86  and  _89
REMARK   40  A    between atoms: _89  and  _90
REMARK   41  A    between atoms: _95  and  _96
REMARK   42  A    between atoms: _98  and  _100
REMARK   43  A    between atoms: _100  and  _101
REMARK   44  A    between atoms: _100  and  _103
REMARK   45  A    between atoms: _103  and  _104
REMARK   46  A    between atoms: _107  and  _109
REMARK   47  A    between atoms: _109  and  _110
REMARK   48  A    between atoms: _109  and  _112
REMARK   49  A    between atoms: _112  and  _113
REMARK   50  A    between atoms: _116  and  _118
REMARK   51  A    between atoms: _118  and  _119
REMARK   52  A    between atoms: _118  and  _121
REMARK   53  A    between atoms: _124  and  _126
REMARK   54  A    between atoms: _126  and  _127
REMARK   55  A    between atoms: _126  and  _129
REMARK   56  A    between atoms: _129  and  _130
REMARK   57  A    between atoms: _130  and  _131
REMARK   58  A    between atoms: _131  and  _132
REMARK   59  A    between atoms: _141  and  _143
REMARK   60  A    between atoms: _143  and  _144
REMARK   61  A    between atoms: _143  and  _146
REMARK   62  A    between atoms: _146  and  _147
REMARK   63  A    between atoms: _152  and  _154
REMARK   64  A    between atoms: _154  and  _155
REMARK   65  A    between atoms: _154  and  _157
REMARK   66  A    between atoms: _157  and  _158
REMARK   67  A    between atoms: _158  and  _159
REMARK   68  A    between atoms: _162  and  _164
REMARK   69  A    between atoms: _164  and  _165
REMARK   70  A    between atoms: _164  and  _167
REMARK   71  A    between atoms: _167  and  _168
REMARK   72  A    between atoms: _168  and  _169
REMARK   73  A    between atoms: _169  and  _170
REMARK   74  A    between atoms: _170  and  _171
REMARK   75  A    between atoms: _175  and  _177
REMARK   76  A    between atoms: _177  and  _178
REMARK   77  A    between atoms: _180  and  _182
REMARK   78  A    between atoms: _182  and  _183
REMARK   79  A    between atoms: _182  and  _185
REMARK   80  A    between atoms: _188  and  _190
REMARK   81  A    between atoms: _190  and  _191
REMARK   82  A    between atoms: _190  and  _193
REMARK   83  A    between atoms: _193  and  _194
REMARK   84  A    between atoms: _196  and  _198
REMARK   85  A    between atoms: _198  and  _199
REMARK   86  A    between atoms: _198  and  _201
REMARK   87  A    between atoms: _201  and  _202
REMARK   88  A    between atoms: _204  and  _206
REMARK   89  A    between atoms: _206  and  _207
REMARK   90  A    between atoms: _206  and  _209
REMARK   91  A    between atoms: _209  and  _210
REMARK   92  A    between atoms: _216  and  _218
REMARK   93  A    between atoms: _218  and  _219
REMARK   94  A    between atoms: _218  and  _221
REMARK   95  A    between atoms: _221  and  _222
REMARK   96  A    between atoms: _225  and  _227
REMARK   97  A    between atoms: _227  and  _228
REMARK   98  A    between atoms: _227  and  _230
REMARK   99  A    between atoms: _230  and  _231
REMARK  100  A    between atoms: _234  and  _236
REMARK  101  A    between atoms: _236  and  _237
REMARK  102  A    between atoms: _236  and  _239
REMARK  103  A    between atoms: _239  and  _240
REMARK  104  A    between atoms: _243  and  _245
REMARK  105  A    between atoms: _245  and  _246
REMARK  106  A    between atoms: _245  and  _248
REMARK  107  A    between atoms: _248  and  _249
REMARK  108  A    between atoms: _249  and  _250
REMARK  109  A    between atoms: _252  and  _254
REMARK  110  A    between atoms: _254  and  _255
REMARK  111  A    between atoms: _254  and  _257
REMARK  112  A    between atoms: _257  and  _258
REMARK  113  A    between atoms: _264  and  _266
REMARK  114  A    between atoms: _266  and  _267
REMARK  115  A    between atoms: _266  and  _269
REMARK  116  A    between atoms: _271  and  _273
REMARK  117  A    between atoms: _273  and  _274
REMARK  118  A    between atoms: _277  and  _279
REMARK  119  A    between atoms: _279  and  _280
REMARK  120  A    between atoms: _282  and  _284
REMARK  121  A    between atoms: _284  and  _285
REMARK  122  A    between atoms: _284  and  _287
REMARK  123  A    between atoms: _287  and  _288
REMARK  124  A    between atoms: _288  and  _289
REMARK  125  A    between atoms: _292  and  _294
REMARK  126  A    between atoms: _294  and  _295
REMARK  127  A    between atoms: _294  and  _297
REMARK  128  A    between atoms: _297  and  _298
REMARK  129  A    between atoms: _301  and  _303
REMARK  130  A    between atoms: _303  and  _304
REMARK  131  A    between atoms: _307  and  _309
REMARK  132  A    between atoms: _309  and  _310
REMARK  133  A    between atoms: _309  and  _312
REMARK  134  A    between atoms: _312  and  _313
REMARK  135  A    between atoms: _313  and  _436
REMARK  136  A    between atoms: _314  and  _316
REMARK  137  A    between atoms: _316  and  _317
REMARK  138  A    between atoms: _316  and  _319
REMARK  139  A    between atoms: _319  and  _320
REMARK  140  A    between atoms: _320  and  _321
REMARK  141  A    between atoms: _326  and  _328
REMARK  142  A    between atoms: _328  and  _329
REMARK  143  A    between atoms: _331  and  _333
REMARK  144  A    between atoms: _333  and  _334
REMARK  145  A    between atoms: _333  and  _336
REMARK  146  A    between atoms: _336  and  _337
REMARK  147  A    between atoms: _340  and  _342
REMARK  148  A    between atoms: _342  and  _343
REMARK  149  A    between atoms: _342  and  _345
REMARK  150  A    between atoms: _345  and  _346
REMARK  151  A    between atoms: _348  and  _350
REMARK  152  A    between atoms: _350  and  _351
REMARK  153  A    between atoms: _353  and  _355
REMARK  154  A    between atoms: _355  and  _356
REMARK  155  A    between atoms: _358  and  _360
REMARK  156  A    between atoms: _360  and  _361
REMARK  157  A    between atoms: _360  and  _363
REMARK  158  A    between atoms: _363  and  _364
REMARK  159  A    between atoms: _369  and  _371
REMARK  160  A    between atoms: _371  and  _372
REMARK  161  A    between atoms: _371  and  _374
REMARK  162  A    between atoms: _374  and  _375
REMARK  163  A    between atoms: _378  and  _380
REMARK  164  A    between atoms: _380  and  _381
REMARK  165  A    between atoms: _380  and  _383
REMARK  166  A    between atoms: _386  and  _388
REMARK  167  A    between atoms: _388  and  _389
REMARK  168  A    between atoms: _388  and  _391
REMARK  169  A    between atoms: _391  and  _392
REMARK  170  A    between atoms: _394  and  _396
REMARK  171  A    between atoms: _396  and  _397
REMARK  172  A    between atoms: _396  and  _399
REMARK  173  A    between atoms: _399  and  _400
REMARK  174  A    between atoms: _410  and  _412
REMARK  175  A    between atoms: _412  and  _413
REMARK  176  A    between atoms: _415  and  _417
REMARK  177  A    between atoms: _417  and  _418
REMARK  178  A    between atoms: _417  and  _420
REMARK  179  A    between atoms: _420  and  _421
REMARK  180  A    between atoms: _421  and  _422
REMARK  181  A    between atoms: _425  and  _427
REMARK  182  A    between atoms: _427  and  _428
REMARK  183  A    between atoms: _430  and  _432
REMARK  184  A    between atoms: _432  and  _433
REMARK  185  A    between atoms: _432  and  _435
REMARK  186  A    between atoms: _435  and  _436
REMARK  187  A    between atoms: _437  and  _439
REMARK  188  A    between atoms: _439  and  _440
REMARK  189  A    between atoms: _443  and  _445
REMARK  190  A    between atoms: _445  and  _446
REMARK  191  A    between atoms: _445  and  _448
REMARK  192  A    between atoms: _448  and  _449
REMARK  193  A    between atoms: _449  and  _450
REMARK  194  A    between atoms: _450  and  _451
REMARK  195  A    between atoms: _460  and  _462
REMARK  196  A    between atoms: _462  and  _463
REMARK  197  A    between atoms: _462  and  _465
REMARK  198  A    between atoms: _465  and  _466
REMARK  199  A    between atoms: _466  and  _467
REMARK  200  A    between atoms: _467  and  _468
REMARK  201  A    between atoms: _468  and  _469
REMARK  202  A    between atoms: _473  and  _475
REMARK  203  A    between atoms: _475  and  _476
REMARK  204  A    between atoms: _475  and  _478
REMARK  205  A    between atoms: _478  and  _479
REMARK  206  A    between atoms: _484  and  _485
REMARK  207  A    between atoms: _487  and  _489
REMARK  208  A    between atoms: _489  and  _490
REMARK  209  A    between atoms: _492  and  _494
REMARK  210  A    between atoms: _494  and  _495
REMARK  211  A    between atoms: _494  and  _497
REMARK  212  A    between atoms: _497  and  _498
REMARK  213  A    between atoms: _501  and  _503
REMARK  214  A    between atoms: _503  and  _504
REMARK  215  A    between atoms: _503  and  _506
REMARK  216  A    between atoms: _506  and  _507
REMARK  217  A    between atoms: _512  and  _513
REMARK  218  A    between atoms: _515  and  _517
REMARK  219  A    between atoms: _517  and  _518
REMARK  220  A    between atoms: _517  and  _520
REMARK  221  A    between atoms: _520  and  _521
REMARK                            x       y       z     vdW  Elec       q    Type
REMARK                         _______ _______ _______ _____ _____    ______ ____
ROOT
ATOM      1  O   HOH     1      11.506   7.705  26.922  0.00  0.00    +0.000 OA
ENDROOT
TORSDOF 0
REMARK  Name = ../refined-set-2016/2vwm/2vwm_pocket.pdb
REMARK  221 active torsions:
REMARK  status: ('A' for Active; 'I' for Inactive)
REMARK    1  A    between atoms: _1  and  _5
REMARK    2  A    between atoms: _5  and  _6
REMARK    3  A    between atoms: _5  and  _8
REMARK    4  A    between atoms: _8  and  _9
REMARK    5  A    between atoms: _12  and  _14
REMARK    6  A    between atoms: _14  and  _15
REMARK    7  A    between atoms: _14  and  _17
REMARK    8  A    between atoms: _20  and  _22
REMARK    9  A    between atoms: _22  and  _23
REMARK   10  A    between atoms: _22  and  _25
REMARK   11  A    between atoms: _25  and  _26
REMARK   12  A    between atoms: _31  and  _33
REMARK   13  A    between atoms: _33  and  _34
REMARK   14  A    between atoms: _33  and  _36
REMARK   15  A    between atoms: _36  and  _37
REMARK   16  A    between atoms: _37  and  _38
REMARK   17  A    between atoms: _43  and  _45
REMARK   18  A    between atoms: _45  and  _46
REMARK   19  A    between atoms: _45  and  _48
REMARK   20  A    between atoms: _48  and  _49
REMARK   21  A    between atoms: _52  and  _54
REMARK   22  A    between atoms: _54  and  _55
REMARK   23  A    between atoms: _54  and  _57
REMARK   24  A    between atoms: _57  and  _58
REMARK   25  A    between atoms: _58  and  _59
REMARK   26  A    between atoms: _59  and  _60
REMARK   27  A    between atoms: _60  and  _61
REMARK   28  A    between atoms: _65  and  _67
REMARK   29  A    between atoms: _67  and  _68
REMARK   30  A    between atoms: _67  and  _70
REMARK   31  A    between atoms: _70  and  _71
REMARK   32  A    between atoms: _71  and  _72
REMARK   33  A    between atoms: _75  and  _77
REMARK   34  A    between atoms: _77  and  _78
REMARK   35  A    between atoms: _77  and  _80
REMARK   36  A    between atoms: _80  and  _81
REMARK   37  A    between atoms: _84  and  _86
REMARK   38  A    between atoms: _86  and  _87
REMARK   39  A    between atoms: _86  and  _89
REMARK   40  A    between atoms: _89  and  _90
REMARK   41  A    between atoms: _95  and  _96
REMARK   42  A    between atoms: _98  and  _100
REMARK   43  A    between atoms: _100  and  _101
REMARK   44  A    between atoms: _100  and  _103
REMARK   45  A    between atoms: _103  and  _104
REMARK   46  A    between atoms: _107  and  _109
REMARK   47  A    between atoms: _109  and  _110
REMARK   48  A    between atoms: _109  and  _112
REMARK   49  A    between atoms: _112  and  _113
REMARK   50  A    between atoms: _116  and  _118
REMARK   51  A    between atoms: _118  and  _119
REMARK   52  A    between atoms: _118  and  _121
REMARK   53  A    between atoms: _124  and  _126
REMARK   54  A    between atoms: _126  and  _127
REMARK   55  A    between atoms: _126  and  _129
REMARK   56  A    between atoms: _129  and  _130
REMARK   57  A    between atoms: _130  and  _131
REMARK   58  A    between atoms: _131  and  _132
REMARK   59  A    between atoms: _141  and  _143
REMARK   60  A    between atoms: _143  and  _144
REMARK   61  A    between atoms: _143  and  _146
REMARK   62  A    between atoms: _146  and  _147
REMARK   63  A    between atoms: _152  and  _154
REMARK   64  A    between atoms: _154  and  _155
REMARK   65  A    between atoms: _154  and  _157
REMARK   66  A    between atoms: _157  and  _158
REMARK   67  A    between atoms: _158  and  _159
REMARK   68  A    between atoms: _162  and  _164
REMARK   69  A    between atoms: _164  and  _165
REMARK   70  A    between atoms: _164  and  _167
REMARK   71  A    between atoms: _167  and  _168
REMARK   72  A    between atoms: _168  and  _169
REMARK   73  A    between atoms: _169  and  _170
REMARK   74  A    between atoms: _170  and  _171
REMARK   75  A    between atoms: _175  and  _177
REMARK   76  A    between atoms: _177  and  _178
REMARK   77  A    between atoms: _180  and  _182
REMARK   78  A    between atoms: _182  and  _183
REMARK   79  A    between atoms: _182  and  _185
REMARK   80  A    between atoms: _188  and  _190
REMARK   81  A    between atoms: _190  and  _191
REMARK   82  A    between atoms: _190  and  _193
REMARK   83  A    between atoms: _193  and  _194
REMARK   84  A    between atoms: _196  and  _198
REMARK   85  A    between atoms: _198  and  _199
REMARK   86  A    between atoms: _198  and  _201
REMARK   87  A    between atoms: _201  and  _202
REMARK   88  A    between atoms: _204  and  _206
REMARK   89  A    between atoms: _206  and  _207
REMARK   90  A    between atoms: _206  and  _209
REMARK   91  A    between atoms: _209  and  _210
REMARK   92  A    between atoms: _216  and  _218
REMARK   93  A    between atoms: _218  and  _219
REMARK   94  A    between atoms: _218  and  _221
REMARK   95  A    between atoms: _221  and  _222
REMARK   96  A    between atoms: _225  and  _227
REMARK   97  A    between atoms: _227  and  _228
REMARK   98  A    between atoms: _227  and  _230
REMARK   99  A    between atoms: _230  and  _231
REMARK  100  A    between atoms: _234  and  _236
REMARK  101  A    between atoms: _236  and  _237
REMARK  102  A    between atoms: _236  and  _239
REMARK  103  A    between atoms: _239  and  _240
REMARK  104  A    between atoms: _243  and  _245
REMARK  105  A    between atoms: _245  and  _246
REMARK  106  A    between atoms: _245  and  _248
REMARK  107  A    between atoms: _248  and  _249
REMARK  108  A    between atoms: _249  and  _250
REMARK  109  A    between atoms: _252  and  _254
REMARK  110  A    between atoms: _254  and  _255
REMARK  111  A    between atoms: _254  and  _257
REMARK  112  A    between atoms: _257  and  _258
REMARK  113  A    between atoms: _264  and  _266
REMARK  114  A    between atoms: _266  and  _267
REMARK  115  A    between atoms: _266  and  _269
REMARK  116  A    between atoms: _271  and  _273
REMARK  117  A    between atoms: _273  and  _274
REMARK  118  A    between atoms: _277  and  _279
REMARK  119  A    between atoms: _279  and  _280
REMARK  120  A    between atoms: _282  and  _284
REMARK  121  A    between atoms: _284  and  _285
REMARK  122  A    between atoms: _284  and  _287
REMARK  123  A    between atoms: _287  and  _288
REMARK  124  A    between atoms: _288  and  _289
REMARK  125  A    between atoms: _292  and  _294
REMARK  126  A    between atoms: _294  and  _295
REMARK  127  A    between atoms: _294  and  _297
REMARK  128  A    between atoms: _297  and  _298
REMARK  129  A    between atoms: _301  and  _303
REMARK  130  A    between atoms: _303  and  _304
REMARK  131  A    between atoms: _307  and  _309
REMARK  132  A    between atoms: _309  and  _310
REMARK  133  A    between atoms: _309  and  _312
REMARK  134  A    between atoms: _312  and  _313
REMARK  135  A    between atoms: _313  and  _436
REMARK  136  A    between atoms: _314  and  _316
REMARK  137  A    between atoms: _316  and  _317
REMARK  138  A    between atoms: _316  and  _319
REMARK  139  A    between atoms: _319  and  _320
REMARK  140  A    between atoms: _320  and  _321
REMARK  141  A    between atoms: _326  and  _328
REMARK  142  A    between atoms: _328  and  _329
REMARK  143  A    between atoms: _331  and  _333
REMARK  144  A    between atoms: _333  and  _334
REMARK  145  A    between atoms: _333  and  _336
REMARK  146  A    between atoms: _336  and  _337
REMARK  147  A    between atoms: _340  and  _342
REMARK  148  A    between atoms: _342  and  _343
REMARK  149  A    between atoms: _342  and  _345
REMARK  150  A    between atoms: _345  and  _346
REMARK  151  A    between atoms: _348  and  _350
REMARK  152  A    between atoms: _350  and  _351
REMARK  153  A    between atoms: _353  and  _355
REMARK  154  A    between atoms: _355  and  _356
REMARK  155  A    between atoms: _358  and  _360
REMARK  156  A    between atoms: _360  and  _361
REMARK  157  A    between atoms: _360  and  _363
REMARK  158  A    between atoms: _363  and  _364
REMARK  159  A    between atoms: _369  and  _371
REMARK  160  A    between atoms: _371  and  _372
REMARK  161  A    between atoms: _371  and  _374
REMARK  162  A    between atoms: _374  and  _375
REMARK  163  A    between atoms: _378  and  _380
REMARK  164  A    between atoms: _380  and  _381
REMARK  165  A    between atoms: _380  and  _383
REMARK  166  A    between atoms: _386  and  _388
REMARK  167  A    between atoms: _388  and  _389
REMARK  168  A    between atoms: _388  and  _391
REMARK  169  A    between atoms: _391  and  _392
REMARK  170  A    between atoms: _394  and  _396
REMARK  171  A    between atoms: _396  and  _397
REMARK  172  A    between atoms: _396  and  _399
REMARK  173  A    between atoms: _399  and  _400
REMARK  174  A    between atoms: _410  and  _412
REMARK  175  A    between atoms: _412  and  _413
REMARK  176  A    between atoms: _415  and  _417
REMARK  177  A    between atoms: _417  and  _418
REMARK  178  A    between atoms: _417  and  _420
REMARK  179  A    between atoms: _420  and  _421
REMARK  180  A    between atoms: _421  and  _422
REMARK  181  A    between atoms: _425  and  _427
REMARK  182  A    between atoms: _427  and  _428
REMARK  183  A    between atoms: _430  and  _432
REMARK  184  A    between atoms: _432  and  _433
REMARK  185  A    between atoms: _432  and  _435
REMARK  186  A    between atoms: _435  and  _436
REMARK  187  A    between atoms: _437  and  _439
REMARK  188  A    between atoms: _439  and  _440
REMARK  189  A    between atoms: _443  and  _445
REMARK  190  A    between atoms: _445  and  _446
REMARK  191  A    between atoms: _445  and  _448
REMARK  192  A    between atoms: _448  and  _449
REMARK  193  A    between atoms: _449  and  _450
REMARK  194  A    between atoms: _450  and  _451
REMARK  195  A    between atoms: _460  and  _462
REMARK  196  A    between atoms: _462  and  _463
REMARK  197  A    between atoms: _462  and  _465
REMARK  198  A    between atoms: _465  and  _466
REMARK  199  A    between atoms: _466  and  _467
REMARK  200  A    between atoms: _467  and  _468
REMARK  201  A    between atoms: _468  and  _469
REMARK  202  A    between atoms: _473  and  _475
REMARK  203  A    between atoms: _475  and  _476
REMARK  204  A    between atoms: _475  and  _478
REMARK  205  A    between atoms: _478  and  _479
REMARK  206  A    between atoms: _484  and  _485
REMARK  207  A    between atoms: _487  and  _489
REMARK  208  A    between atoms: _489  and  _490
REMARK  209  A    between atoms: _492  and  _494
REMARK  210  A    between atoms: _494  and  _495
REMARK  211  A    between atoms: _494  and  _497
REMARK  212  A    between atoms: _497  and  _498
REMARK  213  A    between atoms: _501  and  _503
REMARK  214  A    between atoms: _503  and  _504
REMARK  215  A    between atoms: _503  and  _506
REMARK  216  A    between atoms: _506  and  _507
REMARK  217  A    between atoms: _512  and  _513
REMARK  218  A    between atoms: _515  and  _517
REMARK  219  A    between atoms: _517  and  _518
REMARK  220  A    between atoms: _517  and  _520
REMARK  221  A    between atoms: _520  and  _521
REMARK                            x       y       z     vdW  Elec       q    Type
REMARK                         _______ _______ _______ _____ _____    ______ ____
ROOT
ATOM      1  O   HOH     1      15.051  14.705  40.512  0.00  0.00    +0.000 OA
ENDROOT
TORSDOF 0
REMARK  Name = ../refined-set-2016/2vwm/2vwm_pocket.pdb
REMARK  221 active torsions:
REMARK  status: ('A' for Active; 'I' for Inactive)
REMARK    1  A    between atoms: _1  and  _5
REMARK    2  A    between atoms: _5  and  _6
REMARK    3  A    between atoms: _5  and  _8
REMARK    4  A    between atoms: _8  and  _9
REMARK    5  A    between atoms: _12  and  _14
REMARK    6  A    between atoms: _14  and  _15
REMARK    7  A    between atoms: _14  and  _17
REMARK    8  A    between atoms: _20  and  _22
REMARK    9  A    between atoms: _22  and  _23
REMARK   10  A    between atoms: _22  and  _25
REMARK   11  A    between atoms: _25  and  _26
REMARK   12  A    between atoms: _31  and  _33
REMARK   13  A    between atoms: _33  and  _34
REMARK   14  A    between atoms: _33  and  _36
REMARK   15  A    between atoms: _36  and  _37
REMARK   16  A    between atoms: _37  and  _38
REMARK   17  A    between atoms: _43  and  _45
REMARK   18  A    between atoms: _45  and  _46
REMARK   19  A    between atoms: _45  and  _48
REMARK   20  A    between atoms: _48  and  _49
REMARK   21  A    between atoms: _52  and  _54
REMARK   22  A    between atoms: _54  and  _55
REMARK   23  A    between atoms: _54  and  _57
REMARK   24  A    between atoms: _57  and  _58
REMARK   25  A    between atoms: _58  and  _59
REMARK   26  A    between atoms: _59  and  _60
REMARK   27  A    between atoms: _60  and  _61
REMARK   28  A    between atoms: _65  and  _67
REMARK   29  A    between atoms: _67  and  _68
REMARK   30  A    between atoms: _67  and  _70
REMARK   31  A    between atoms: _70  and  _71
REMARK   32  A    between atoms: _71  and  _72
REMARK   33  A    between atoms: _75  and  _77
REMARK   34  A    between atoms: _77  and  _78
REMARK   35  A    between atoms: _77  and  _80
REMARK   36  A    between atoms: _80  and  _81
REMARK   37  A    between atoms: _84  and  _86
REMARK   38  A    between atoms: _86  and  _87
REMARK   39  A    between atoms: _86  and  _89
REMARK   40  A    between atoms: _89  and  _90
REMARK   41  A    between atoms: _95  and  _96
REMARK   42  A    between atoms: _98  and  _100
REMARK   43  A    between atoms: _100  and  _101
REMARK   44  A    between atoms: _100  and  _103
REMARK   45  A    between atoms: _103  and  _104
REMARK   46  A    between atoms: _107  and  _109
REMARK   47  A    between atoms: _109  and  _110
REMARK   48  A    between atoms: _109  and  _112
REMARK   49  A    between atoms: _112  and  _113
REMARK   50  A    between atoms: _116  and  _118
REMARK   51  A    between atoms: _118  and  _119
REMARK   52  A    between atoms: _118  and  _121
REMARK   53  A    between atoms: _124  and  _126
REMARK   54  A    between atoms: _126  and  _127
REMARK   55  A    between atoms: _126  and  _129
REMARK   56  A    between atoms: _129  and  _130
REMARK   57  A    between atoms: _130  and  _131
REMARK   58  A    between atoms: _131  and  _132
REMARK   59  A    between atoms: _141  and  _143
REMARK   60  A    between atoms: _143  and  _144
REMARK   61  A    between atoms: _143  and  _146
REMARK   62  A    between atoms: _146  and  _147
REMARK   63  A    between atoms: _152  and  _154
REMARK   64  A    between atoms: _154  and  _155
REMARK   65  A    between atoms: _154  and  _157
REMARK   66  A    between atoms: _157  and  _158
REMARK   67  A    between atoms: _158  and  _159
REMARK   68  A    between atoms: _162  and  _164
REMARK   69  A    between atoms: _164  and  _165
REMARK   70  A    between atoms: _164  and  _167
REMARK   71  A    between atoms: _167  and  _168
REMARK   72  A    between atoms: _168  and  _169
REMARK   73  A    between atoms: _169  and  _170
REMARK   74  A    between atoms: _170  and  _171
REMARK   75  A    between atoms: _175  and  _177
REMARK   76  A    between atoms: _177  and  _178
REMARK   77  A    between atoms: _180  and  _182
REMARK   78  A    between atoms: _182  and  _183
REMARK   79  A    between atoms: _182  and  _185
REMARK   80  A    between atoms: _188  and  _190
REMARK   81  A    between atoms: _190  and  _191
REMARK   82  A    between atoms: _190  and  _193
REMARK   83  A    between atoms: _193  and  _194
REMARK   84  A    between atoms: _196  and  _198
REMARK   85  A    between atoms: _198  and  _199
REMARK   86  A    between atoms: _198  and  _201
REMARK   87  A    between atoms: _201  and  _202
REMARK   88  A    between atoms: _204  and  _206
REMARK   89  A    between atoms: _206  and  _207
REMARK   90  A    between atoms: _206  and  _209
REMARK   91  A    between atoms: _209  and  _210
REMARK   92  A    between atoms: _216  and  _218
REMARK   93  A    between atoms: _218  and  _219
REMARK   94  A    between atoms: _218  and  _221
REMARK   95  A    between atoms: _221  and  _222
REMARK   96  A    between atoms: _225  and  _227
REMARK   97  A    between atoms: _227  and  _228
REMARK   98  A    between atoms: _227  and  _230
REMARK   99  A    between atoms: _230  and  _231
REMARK  100  A    between atoms: _234  and  _236
REMARK  101  A    between atoms: _236  and  _237
REMARK  102  A    between atoms: _236  and  _239
REMARK  103  A    between atoms: _239  and  _240
REMARK  104  A    between atoms: _243  and  _245
REMARK  105  A    between atoms: _245  and  _246
REMARK  106  A    between atoms: _245  and  _248
REMARK  107  A    between atoms: _248  and  _249
REMARK  108  A    between atoms: _249  and  _250
REMARK  109  A    between atoms: _252  and  _254
REMARK  110  A    between atoms: _254  and  _255
REMARK  111  A    between atoms: _254  and  _257
REMARK  112  A    between atoms: _257  and  _258
REMARK  113  A    between atoms: _264  and  _266
REMARK  114  A    between atoms: _266  and  _267
REMARK  115  A    between atoms: _266  and  _269
REMARK  116  A    between atoms: _271  and  _273
REMARK  117  A    between atoms: _273  and  _274
REMARK  118  A    between atoms: _277  and  _279
REMARK  119  A    between atoms: _279  and  _280
REMARK  120  A    between atoms: _282  and  _284
REMARK  121  A    between atoms: _284  and  _285
REMARK  122  A    between atoms: _284  and  _287
REMARK  123  A    between atoms: _287  and  _288
REMARK  124  A    between atoms: _288  and  _289
REMARK  125  A    between atoms: _292  and  _294
REMARK  126  A    between atoms: _294  and  _295
REMARK  127  A    between atoms: _294  and  _297
REMARK  128  A    between atoms: _297  and  _298
REMARK  129  A    between atoms: _301  and  _303
REMARK  130  A    between atoms: _303  and  _304
REMARK  131  A    between atoms: _307  and  _309
REMARK  132  A    between atoms: _309  and  _310
REMARK  133  A    between atoms: _309  and  _312
REMARK  134  A    between atoms: _312  and  _313
REMARK  135  A    between atoms: _313  and  _436
REMARK  136  A    between atoms: _314  and  _316
REMARK  137  A    between atoms: _316  and  _317
REMARK  138  A    between atoms: _316  and  _319
REMARK  139  A    between atoms: _319  and  _320
REMARK  140  A    between atoms: _320  and  _321
REMARK  141  A    between atoms: _326  and  _328
REMARK  142  A    between atoms: _328  and  _329
REMARK  143  A    between atoms: _331  and  _333
REMARK  144  A    between atoms: _333  and  _334
REMARK  145  A    between atoms: _333  and  _336
REMARK  146  A    between atoms: _336  and  _337
REMARK  147  A    between atoms: _340  and  _342
REMARK  148  A    between atoms: _342  and  _343
REMARK  149  A    between atoms: _342  and  _345
REMARK  150  A    between atoms: _345  and  _346
REMARK  151  A    between atoms: _348  and  _350
REMARK  152  A    between atoms: _350  and  _351
REMARK  153  A    between atoms: _353  and  _355
REMARK  154  A    between atoms: _355  and  _356
REMARK  155  A    between atoms: _358  and  _360
REMARK  156  A    between atoms: _360  and  _361
REMARK  157  A    between atoms: _360  and  _363
REMARK  158  A    between atoms: _363  and  _364
REMARK  159  A    between atoms: _369  and  _371
REMARK  160  A    between atoms: _371  and  _372
REMARK  161  A    between atoms: _371  and  _374
REMARK  162  A    between atoms: _374  and  _375
REMARK  163  A    between atoms: _378  and  _380
REMARK  164  A    between atoms: _380  and  _381
REMARK  165  A    between atoms: _380  and  _383
REMARK  166  A    between atoms: _386  and  _388
REMARK  167  A    between atoms: _388  and  _389
REMARK  168  A    between atoms: _388  and  _391
REMARK  169  A    between atoms: _391  and  _392
REMARK  170  A    between atoms: _394  and  _396
REMARK  171  A    between atoms: _396  and  _397
REMARK  172  A    between atoms: _396  and  _399
REMARK  173  A    between atoms: _399  and  _400
REMARK  174  A    between atoms: _410  and  _412
REMARK  175  A    between atoms: _412  and  _413
REMARK  176  A    between atoms: _415  and  _417
REMARK  177  A    between atoms: _417  and  _418
REMARK  178  A    between atoms: _417  and  _420
REMARK  179  A    between atoms: _420  and  _421
REMARK  180  A    between atoms: _421  and  _422
REMARK  181  A    between atoms: _425  and  _427
REMARK  182  A    between atoms: _427  and  _428
REMARK  183  A    between atoms: _430  and  _432
REMARK  184  A    between atoms: _432  and  _433
REMARK  185  A    between atoms: _432  and  _435
REMARK  186  A    between atoms: _435  and  _436
REMARK  187  A    between atoms: _437  and  _439
REMARK  188  A    between atoms: _439  and  _440
REMARK  189  A    between atoms: _443  and  _445
REMARK  190  A    between atoms: _445  and  _446
REMARK  191  A    between atoms: _445  and  _448
REMARK  192  A    between atoms: _448  and  _449
REMARK  193  A    between atoms: _449  and  _450
REMARK  194  A    between atoms: _450  and  _451
REMARK  195  A    between atoms: _460  and  _462
REMARK  196  A    between atoms: _462  and  _463
REMARK  197  A    between atoms: _462  and  _465
REMARK  198  A    between atoms: _465  and  _466
REMARK  199  A    between atoms: _466  and  _467
REMARK  200  A    between atoms: _467  and  _468
REMARK  201  A    between atoms: _468  and  _469
REMARK  202  A    between atoms: _473  and  _475
REMARK  203  A    between atoms: _475  and  _476
REMARK  204  A    between atoms: _475  and  _478
REMARK  205  A    between atoms: _478  and  _479
REMARK  206  A    between atoms: _484  and  _485
REMARK  207  A    between atoms: _487  and  _489
REMARK  208  A    between atoms: _489  and  _490
REMARK  209  A    between atoms: _492  and  _494
REMARK  210  A    between atoms: _494  and  _495
REMARK  211  A    between atoms: _494  and  _497
REMARK  212  A    between atoms: _497  and  _498
REMARK  213  A    between atoms: _501  and  _503
REMARK  214  A    between atoms: _503  and  _504
REMARK  215  A    between atoms: _503  and  _506
REMARK  216  A    between atoms: _506  and  _507
REMARK  217  A    between atoms: _512  and  _513
REMARK  218  A    between atoms: _515  and  _517
REMARK  219  A    between atoms: _517  and  _518
REMARK  220  A    between atoms: _517  and  _520
REMARK  221  A    between atoms: _520  and  _521
REMARK                            x       y       z     vdW  Elec       q    Type
REMARK                         _______ _______ _______ _____ _____    ______ ____
ROOT
ATOM      1  O   HOH     1       9.846   4.863  16.782  0.00  0.00    +0.000 OA
ENDROOT
TORSDOF 0
REMARK  Name = ../refined-set-2016/2vwm/2vwm_pocket.pdb
REMARK  221 active torsions:
REMARK  status: ('A' for Active; 'I' for Inactive)
REMARK    1  A    between atoms: _1  and  _5
REMARK    2  A    between atoms: _5  and  _6
REMARK    3  A    between atoms: _5  and  _8
REMARK    4  A    between atoms: _8  and  _9
REMARK    5  A    between atoms: _12  and  _14
REMARK    6  A    between atoms: _14  and  _15
REMARK    7  A    between atoms: _14  and  _17
REMARK    8  A    between atoms: _20  and  _22
REMARK    9  A    between atoms: _22  and  _23
REMARK   10  A    between atoms: _22  and  _25
REMARK   11  A    between atoms: _25  and  _26
REMARK   12  A    between atoms: _31  and  _33
REMARK   13  A    between atoms: _33  and  _34
REMARK   14  A    between atoms: _33  and  _36
REMARK   15  A    between atoms: _36  and  _37
REMARK   16  A    between atoms: _37  and  _38
REMARK   17  A    between atoms: _43  and  _45
REMARK   18  A    between atoms: _45  and  _46
REMARK   19  A    between atoms: _45  and  _48
REMARK   20  A    between atoms: _48  and  _49
REMARK   21  A    between atoms: _52  and  _54
REMARK   22  A    between atoms: _54  and  _55
REMARK   23  A    between atoms: _54  and  _57
REMARK   24  A    between atoms: _57  and  _58
REMARK   25  A    between atoms: _58  and  _59
REMARK   26  A    between atoms: _59  and  _60
REMARK   27  A    between atoms: _60  and  _61
REMARK   28  A    between atoms: _65  and  _67
REMARK   29  A    between atoms: _67  and  _68
REMARK   30  A    between atoms: _67  and  _70
REMARK   31  A    between atoms: _70  and  _71
REMARK   32  A    between atoms: _71  and  _72
REMARK   33  A    between atoms: _75  and  _77
REMARK   34  A    between atoms: _77  and  _78
REMARK   35  A    between atoms: _77  and  _80
REMARK   36  A    between atoms: _80  and  _81
REMARK   37  A    between atoms: _84  and  _86
REMARK   38  A    between atoms: _86  and  _87
REMARK   39  A    between atoms: _86  and  _89
REMARK   40  A    between atoms: _89  and  _90
REMARK   41  A    between atoms: _95  and  _96
REMARK   42  A    between atoms: _98  and  _100
REMARK   43  A    between atoms: _100  and  _101
REMARK   44  A    between atoms: _100  and  _103
REMARK   45  A    between atoms: _103  and  _104
REMARK   46  A    between atoms: _107  and  _109
REMARK   47  A    between atoms: _109  and  _110
REMARK   48  A    between atoms: _109  and  _112
REMARK   49  A    between atoms: _112  and  _113
REMARK   50  A    between atoms: _116  and  _118
REMARK   51  A    between atoms: _118  and  _119
REMARK   52  A    between atoms: _118  and  _121
REMARK   53  A    between atoms: _124  and  _126
REMARK   54  A    between atoms: _126  and  _127
REMARK   55  A    between atoms: _126  and  _129
REMARK   56  A    between atoms: _129  and  _130
REMARK   57  A    between atoms: _130  and  _131
REMARK   58  A    between atoms: _131  and  _132
REMARK   59  A    between atoms: _141  and  _143
REMARK   60  A    between atoms: _143  and  _144
REMARK   61  A    between atoms: _143  and  _146
REMARK   62  A    between atoms: _146  and  _147
REMARK   63  A    between atoms: _152  and  _154
REMARK   64  A    between atoms: _154  and  _155
REMARK   65  A    between atoms: _154  and  _157
REMARK   66  A    between atoms: _157  and  _158
REMARK   67  A    between atoms: _158  and  _159
REMARK   68  A    between atoms: _162  and  _164
REMARK   69  A    between atoms: _164  and  _165
REMARK   70  A    between atoms: _164  and  _167
REMARK   71  A    between atoms: _167  and  _168
REMARK   72  A    between atoms: _168  and  _169
REMARK   73  A    between atoms: _169  and  _170
REMARK   74  A    between atoms: _170  and  _171
REMARK   75  A    between atoms: _175  and  _177
REMARK   76  A    between atoms: _177  and  _178
REMARK   77  A    between atoms: _180  and  _182
REMARK   78  A    between atoms: _182  and  _183
REMARK   79  A    between atoms: _182  and  _185
REMARK   80  A    between atoms: _188  and  _190
REMARK   81  A    between atoms: _190  and  _191
REMARK   82  A    between atoms: _190  and  _193
REMARK   83  A    between atoms: _193  and  _194
REMARK   84  A    between atoms: _196  and  _198
REMARK   85  A    between atoms: _198  and  _199
REMARK   86  A    between atoms: _198  and  _201
REMARK   87  A    between atoms: _201  and  _202
REMARK   88  A    between atoms: _204  and  _206
REMARK   89  A    between atoms: _206  and  _207
REMARK   90  A    between atoms: _206  and  _209
REMARK   91  A    between atoms: _209  and  _210
REMARK   92  A    between atoms: _216  and  _218
REMARK   93  A    between atoms: _218  and  _219
REMARK   94  A    between atoms: _218  and  _221
REMARK   95  A    between atoms: _221  and  _222
REMARK   96  A    between atoms: _225  and  _227
REMARK   97  A    between atoms: _227  and  _228
REMARK   98  A    between atoms: _227  and  _230
REMARK   99  A    between atoms: _230  and  _231
REMARK  100  A    between atoms: _234  and  _236
REMARK  101  A    between atoms: _236  and  _237
REMARK  102  A    between atoms: _236  and  _239
REMARK  103  A    between atoms: _239  and  _240
REMARK  104  A    between atoms: _243  and  _245
REMARK  105  A    between atoms: _245  and  _246
REMARK  106  A    between atoms: _245  and  _248
REMARK  107  A    between atoms: _248  and  _249
REMARK  108  A    between atoms: _249  and  _250
REMARK  109  A    between atoms: _252  and  _254
REMARK  110  A    between atoms: _254  and  _255
REMARK  111  A    between atoms: _254  and  _257
REMARK  112  A    between atoms: _257  and  _258
REMARK  113  A    between atoms: _264  and  _266
REMARK  114  A    between atoms: _266  and  _267
REMARK  115  A    between atoms: _266  and  _269
REMARK  116  A    between atoms: _271  and  _273
REMARK  117  A    between atoms: _273  and  _274
REMARK  118  A    between atoms: _277  and  _279
REMARK  119  A    between atoms: _279  and  _280
REMARK  120  A    between atoms: _282  and  _284
REMARK  121  A    between atoms: _284  and  _285
REMARK  122  A    between atoms: _284  and  _287
REMARK  123  A    between atoms: _287  and  _288
REMARK  124  A    between atoms: _288  and  _289
REMARK  125  A    between atoms: _292  and  _294
REMARK  126  A    between atoms: _294  and  _295
REMARK  127  A    between atoms: _294  and  _297
REMARK  128  A    between atoms: _297  and  _298
REMARK  129  A    between atoms: _301  and  _303
REMARK  130  A    between atoms: _303  and  _304
REMARK  131  A    between atoms: _307  and  _309
REMARK  132  A    between atoms: _309  and  _310
REMARK  133  A    between atoms: _309  and  _312
REMARK  134  A    between atoms: _312  and  _313
REMARK  135  A    between atoms: _313  and  _436
REMARK  136  A    between atoms: _314  and  _316
REMARK  137  A    between atoms: _316  and  _317
REMARK  138  A    between atoms: _316  and  _319
REMARK  139  A    between atoms: _319  and  _320
REMARK  140  A    between atoms: _320  and  _321
REMARK  141  A    between atoms: _326  and  _328
REMARK  142  A    between atoms: _328  and  _329
REMARK  143  A    between atoms: _331  and  _333
REMARK  144  A    between atoms: _333  and  _334
REMARK  145  A    between atoms: _333  and  _336
REMARK  146  A    between atoms: _336  and  _337
REMARK  147  A    between atoms: _340  and  _342
REMARK  148  A    between atoms: _342  and  _343
REMARK  149  A    between atoms: _342  and  _345
REMARK  150  A    between atoms: _345  and  _346
REMARK  151  A    between atoms: _348  and  _350
REMARK  152  A    between atoms: _350  and  _351
REMARK  153  A    between atoms: _353  and  _355
REMARK  154  A    between atoms: _355  and  _356
REMARK  155  A    between atoms: _358  and  _360
REMARK  156  A    between atoms: _360  and  _361
REMARK  157  A    between atoms: _360  and  _363
REMARK  158  A    between atoms: _363  and  _364
REMARK  159  A    between atoms: _369  and  _371
REMARK  160  A    between atoms: _371  and  _372
REMARK  161  A    between atoms: _371  and  _374
REMARK  162  A    between atoms: _374  and  _375
REMARK  163  A    between atoms: _378  and  _380
REMARK  164  A    between atoms: _380  and  _381
REMARK  165  A    between atoms: _380  and  _383
REMARK  166  A    between atoms: _386  and  _388
REMARK  167  A    between atoms: _388  and  _389
REMARK  168  A    between atoms: _388  and  _391
REMARK  169  A    between atoms: _391  and  _392
REMARK  170  A    between atoms: _394  and  _396
REMARK  171  A    between atoms: _396  and  _397
REMARK  172  A    between atoms: _396  and  _399
REMARK  173  A    between atoms: _399  and  _400
REMARK  174  A    between atoms: _410  and  _412
REMARK  175  A    between atoms: _412  and  _413
REMARK  176  A    between atoms: _415  and  _417
REMARK  177  A    between atoms: _417  and  _418
REMARK  178  A    between atoms: _417  and  _420
REMARK  179  A    between atoms: _420  and  _421
REMARK  180  A    between atoms: _421  and  _422
REMARK  181  A    between atoms: _425  and  _427
REMARK  182  A    between atoms: _427  and  _428
REMARK  183  A    between atoms: _430  and  _432
REMARK  184  A    between atoms: _432  and  _433
REMARK  185  A    between atoms: _432  and  _435
REMARK  186  A    between atoms: _435  and  _436
REMARK  187  A    between atoms: _437  and  _439
REMARK  188  A    between atoms: _439  and  _440
REMARK  189  A    between atoms: _443  and  _445
REMARK  190  A    between atoms: _445  and  _446
REMARK  191  A    between atoms: _445  and  _448
REMARK  192  A    between atoms: _448  and  _449
REMARK  193  A    between atoms: _449  and  _450
REMARK  194  A    between atoms: _450  and  _451
REMARK  195  A    between atoms: _460  and  _462
REMARK  196  A    between atoms: _462  and  _463
REMARK  197  A    between atoms: _462  and  _465
REMARK  198  A    between atoms: _465  and  _466
REMARK  199  A    between atoms: _466  and  _467
REMARK  200  A    between atoms: _467  and  _468
REMARK  201  A    between atoms: _468  and  _469
REMARK  202  A    between atoms: _473  and  _475
REMARK  203  A    between atoms: _475  and  _476
REMARK  204  A    between atoms: _475  and  _478
REMARK  205  A    between atoms: _478  and  _479
REMARK  206  A    between atoms: _484  and  _485
REMARK  207  A    between atoms: _487  and  _489
REMARK  208  A    between atoms: _489  and  _490
REMARK  209  A    between atoms: _492  and  _494
REMARK  210  A    between atoms: _494  and  _495
REMARK  211  A    between atoms: _494  and  _497
REMARK  212  A    between atoms: _497  and  _498
REMARK  213  A    between atoms: _501  and  _503
REMARK  214  A    between atoms: _503  and  _504
REMARK  215  A    between atoms: _503  and  _506
REMARK  216  A    between atoms: _506  and  _507
REMARK  217  A    between atoms: _512  and  _513
REMARK  218  A    between atoms: _515  and  _517
REMARK  219  A    between atoms: _517  and  _518
REMARK  220  A    between atoms: _517  and  _520
REMARK  221  A    between atoms: _520  and  _521
REMARK                            x       y       z     vdW  Elec       q    Type
REMARK                         _______ _______ _______ _____ _____    ______ ____
ROOT
ATOM      1  O   HOH     1      16.191  -5.281  23.279  0.00  0.00    +0.000 OA
ENDROOT
TORSDOF 0
REMARK  Name = ../refined-set-2016/2vwm/2vwm_pocket.pdb
REMARK  221 active torsions:
REMARK  status: ('A' for Active; 'I' for Inactive)
REMARK    1  A    between atoms: _1  and  _5
REMARK    2  A    between atoms: _5  and  _6
REMARK    3  A    between atoms: _5  and  _8
REMARK    4  A    between atoms: _8  and  _9
REMARK    5  A    between atoms: _12  and  _14
REMARK    6  A    between atoms: _14  and  _15
REMARK    7  A    between atoms: _14  and  _17
REMARK    8  A    between atoms: _20  and  _22
REMARK    9  A    between atoms: _22  and  _23
REMARK   10  A    between atoms: _22  and  _25
REMARK   11  A    between atoms: _25  and  _26
REMARK   12  A    between atoms: _31  and  _33
REMARK   13  A    between atoms: _33  and  _34
REMARK   14  A    between atoms: _33  and  _36
REMARK   15  A    between atoms: _36  and  _37
REMARK   16  A    between atoms: _37  and  _38
REMARK   17  A    between atoms: _43  and  _45
REMARK   18  A    between atoms: _45  and  _46
REMARK   19  A    between atoms: _45  and  _48
REMARK   20  A    between atoms: _48  and  _49
REMARK   21  A    between atoms: _52  and  _54
REMARK   22  A    between atoms: _54  and  _55
REMARK   23  A    between atoms: _54  and  _57
REMARK   24  A    between atoms: _57  and  _58
REMARK   25  A    between atoms: _58  and  _59
REMARK   26  A    between atoms: _59  and  _60
REMARK   27  A    between atoms: _60  and  _61
REMARK   28  A    between atoms: _65  and  _67
REMARK   29  A    between atoms: _67  and  _68
REMARK   30  A    between atoms: _67  and  _70
REMARK   31  A    between atoms: _70  and  _71
REMARK   32  A    between atoms: _71  and  _72
REMARK   33  A    between atoms: _75  and  _77
REMARK   34  A    between atoms: _77  and  _78
REMARK   35  A    between atoms: _77  and  _80
REMARK   36  A    between atoms: _80  and  _81
REMARK   37  A    between atoms: _84  and  _86
REMARK   38  A    between atoms: _86  and  _87
REMARK   39  A    between atoms: _86  and  _89
REMARK   40  A    between atoms: _89  and  _90
REMARK   41  A    between atoms: _95  and  _96
REMARK   42  A    between atoms: _98  and  _100
REMARK   43  A    between atoms: _100  and  _101
REMARK   44  A    between atoms: _100  and  _103
REMARK   45  A    between atoms: _103  and  _104
REMARK   46  A    between atoms: _107  and  _109
REMARK   47  A    between atoms: _109  and  _110
REMARK   48  A    between atoms: _109  and  _112
REMARK   49  A    between atoms: _112  and  _113
REMARK   50  A    between atoms: _116  and  _118
REMARK   51  A    between atoms: _118  and  _119
REMARK   52  A    between atoms: _118  and  _121
REMARK   53  A    between atoms: _124  and  _126
REMARK   54  A    between atoms: _126  and  _127
REMARK   55  A    between atoms: _126  and  _129
REMARK   56  A    between atoms: _129  and  _130
REMARK   57  A    between atoms: _130  and  _131
REMARK   58  A    between atoms: _131  and  _132
REMARK   59  A    between atoms: _141  and  _143
REMARK   60  A    between atoms: _143  and  _144
REMARK   61  A    between atoms: _143  and  _146
REMARK   62  A    between atoms: _146  and  _147
REMARK   63  A    between atoms: _152  and  _154
REMARK   64  A    between atoms: _154  and  _155
REMARK   65  A    between atoms: _154  and  _157
REMARK   66  A    between atoms: _157  and  _158
REMARK   67  A    between atoms: _158  and  _159
REMARK   68  A    between atoms: _162  and  _164
REMARK   69  A    between atoms: _164  and  _165
REMARK   70  A    between atoms: _164  and  _167
REMARK   71  A    between atoms: _167  and  _168
REMARK   72  A    between atoms: _168  and  _169
REMARK   73  A    between atoms: _169  and  _170
REMARK   74  A    between atoms: _170  and  _171
REMARK   75  A    between atoms: _175  and  _177
REMARK   76  A    between atoms: _177  and  _178
REMARK   77  A    between atoms: _180  and  _182
REMARK   78  A    between atoms: _182  and  _183
REMARK   79  A    between atoms: _182  and  _185
REMARK   80  A    between atoms: _188  and  _190
REMARK   81  A    between atoms: _190  and  _191
REMARK   82  A    between atoms: _190  and  _193
REMARK   83  A    between atoms: _193  and  _194
REMARK   84  A    between atoms: _196  and  _198
REMARK   85  A    between atoms: _198  and  _199
REMARK   86  A    between atoms: _198  and  _201
REMARK   87  A    between atoms: _201  and  _202
REMARK   88  A    between atoms: _204  and  _206
REMARK   89  A    between atoms: _206  and  _207
REMARK   90  A    between atoms: _206  and  _209
REMARK   91  A    between atoms: _209  and  _210
REMARK   92  A    between atoms: _216  and  _218
REMARK   93  A    between atoms: _218  and  _219
REMARK   94  A    between atoms: _218  and  _221
REMARK   95  A    between atoms: _221  and  _222
REMARK   96  A    between atoms: _225  and  _227
REMARK   97  A    between atoms: _227  and  _228
REMARK   98  A    between atoms: _227  and  _230
REMARK   99  A    between atoms: _230  and  _231
REMARK  100  A    between atoms: _234  and  _236
REMARK  101  A    between atoms: _236  and  _237
REMARK  102  A    between atoms: _236  and  _239
REMARK  103  A    between atoms: _239  and  _240
REMARK  104  A    between atoms: _243  and  _245
REMARK  105  A    between atoms: _245  and  _246
REMARK  106  A    between atoms: _245  and  _248
REMARK  107  A    between atoms: _248  and  _249
REMARK  108  A    between atoms: _249  and  _250
REMARK  109  A    between atoms: _252  and  _254
REMARK  110  A    between atoms: _254  and  _255
REMARK  111  A    between atoms: _254  and  _257
REMARK  112  A    between atoms: _257  and  _258
REMARK  113  A    between atoms: _264  and  _266
REMARK  114  A    between atoms: _266  and  _267
REMARK  115  A    between atoms: _266  and  _269
REMARK  116  A    between atoms: _271  and  _273
REMARK  117  A    between atoms: _273  and  _274
REMARK  118  A    between atoms: _277  and  _279
REMARK  119  A    between atoms: _279  and  _280
REMARK  120  A    between atoms: _282  and  _284
REMARK  121  A    between atoms: _284  and  _285
REMARK  122  A    between atoms: _284  and  _287
REMARK  123  A    between atoms: _287  and  _288
REMARK  124  A    between atoms: _288  and  _289
REMARK  125  A    between atoms: _292  and  _294
REMARK  126  A    between atoms: _294  and  _295
REMARK  127  A    between atoms: _294  and  _297
REMARK  128  A    between atoms: _297  and  _298
REMARK  129  A    between atoms: _301  and  _303
REMARK  130  A    between atoms: _303  and  _304
REMARK  131  A    between atoms: _307  and  _309
REMARK  132  A    between atoms: _309  and  _310
REMARK  133  A    between atoms: _309  and  _312
REMARK  134  A    between atoms: _312  and  _313
REMARK  135  A    between atoms: _313  and  _436
REMARK  136  A    between atoms: _314  and  _316
REMARK  137  A    between atoms: _316  and  _317
REMARK  138  A    between atoms: _316  and  _319
REMARK  139  A    between atoms: _319  and  _320
REMARK  140  A    between atoms: _320  and  _321
REMARK  141  A    between atoms: _326  and  _328
REMARK  142  A    between atoms: _328  and  _329
REMARK  143  A    between atoms: _331  and  _333
REMARK  144  A    between atoms: _333  and  _334
REMARK  145  A    between atoms: _333  and  _336
REMARK  146  A    between atoms: _336  and  _337
REMARK  147  A    between atoms: _340  and  _342
REMARK  148  A    between atoms: _342  and  _343
REMARK  149  A    between atoms: _342  and  _345
REMARK  150  A    between atoms: _345  and  _346
REMARK  151  A    between atoms: _348  and  _350
REMARK  152  A    between atoms: _350  and  _351
REMARK  153  A    between atoms: _353  and  _355
REMARK  154  A    between atoms: _355  and  _356
REMARK  155  A    between atoms: _358  and  _360
REMARK  156  A    between atoms: _360  and  _361
REMARK  157  A    between atoms: _360  and  _363
REMARK  158  A    between atoms: _363  and  _364
REMARK  159  A    between atoms: _369  and  _371
REMARK  160  A    between atoms: _371  and  _372
REMARK  161  A    between atoms: _371  and  _374
REMARK  162  A    between atoms: _374  and  _375
REMARK  163  A    between atoms: _378  and  _380
REMARK  164  A    between atoms: _380  and  _381
REMARK  165  A    between atoms: _380  and  _383
REMARK  166  A    between atoms: _386  and  _388
REMARK  167  A    between atoms: _388  and  _389
REMARK  168  A    between atoms: _388  and  _391
REMARK  169  A    between atoms: _391  and  _392
REMARK  170  A    between atoms: _394  and  _396
REMARK  171  A    between atoms: _396  and  _397
REMARK  172  A    between atoms: _396  and  _399
REMARK  173  A    between atoms: _399  and  _400
REMARK  174  A    between atoms: _410  and  _412
REMARK  175  A    between atoms: _412  and  _413
REMARK  176  A    between atoms: _415  and  _417
REMARK  177  A    between atoms: _417  and  _418
REMARK  178  A    between atoms: _417  and  _420
REMARK  179  A    between atoms: _420  and  _421
REMARK  180  A    between atoms: _421  and  _422
REMARK  181  A    between atoms: _425  and  _427
REMARK  182  A    between atoms: _427  and  _428
REMARK  183  A    between atoms: _430  and  _432
REMARK  184  A    between atoms: _432  and  _433
REMARK  185  A    between atoms: _432  and  _435
REMARK  186  A    between atoms: _435  and  _436
REMARK  187  A    between atoms: _437  and  _439
REMARK  188  A    between atoms: _439  and  _440
REMARK  189  A    between atoms: _443  and  _445
REMARK  190  A    between atoms: _445  and  _446
REMARK  191  A    between atoms: _445  and  _448
REMARK  192  A    between atoms: _448  and  _449
REMARK  193  A    between atoms: _449  and  _450
REMARK  194  A    between atoms: _450  and  _451
REMARK  195  A    between atoms: _460  and  _462
REMARK  196  A    between atoms: _462  and  _463
REMARK  197  A    between atoms: _462  and  _465
REMARK  198  A    between atoms: _465  and  _466
REMARK  199  A    between atoms: _466  and  _467
REMARK  200  A    between atoms: _467  and  _468
REMARK  201  A    between atoms: _468  and  _469
REMARK  202  A    between atoms: _473  and  _475
REMARK  203  A    between atoms: _475  and  _476
REMARK  204  A    between atoms: _475  and  _478
REMARK  205  A    between atoms: _478  and  _479
REMARK  206  A    between atoms: _484  and  _485
REMARK  207  A    between atoms: _487  and  _489
REMARK  208  A    between atoms: _489  and  _490
REMARK  209  A    between atoms: _492  and  _494
REMARK  210  A    between atoms: _494  and  _495
REMARK  211  A    between atoms: _494  and  _497
REMARK  212  A    between atoms: _497  and  _498
REMARK  213  A    between atoms: _501  and  _503
REMARK  214  A    between atoms: _503  and  _504
REMARK  215  A    between atoms: _503  and  _506
REMARK  216  A    between atoms: _506  and  _507
REMARK  217  A    between atoms: _512  and  _513
REMARK  218  A    between atoms: _515  and  _517
REMARK  219  A    between atoms: _517  and  _518
REMARK  220  A    between atoms: _517  and  _520
REMARK  221  A    between atoms: _520  and  _521
REMARK                            x       y       z     vdW  Elec       q    Type
REMARK                         _______ _______ _______ _____ _____    ______ ____
ROOT
ATOM      1  O   HOH     1      22.195  -1.194  22.150  0.00  0.00    +0.000 OA
ENDROOT
TORSDOF 0
REMARK  Name = ../refined-set-2016/2vwm/2vwm_pocket.pdb
REMARK  221 active torsions:
REMARK  status: ('A' for Active; 'I' for Inactive)
REMARK    1  A    between atoms: _1  and  _5
REMARK    2  A    between atoms: _5  and  _6
REMARK    3  A    between atoms: _5  and  _8
REMARK    4  A    between atoms: _8  and  _9
REMARK    5  A    between atoms: _12  and  _14
REMARK    6  A    between atoms: _14  and  _15
REMARK    7  A    between atoms: _14  and  _17
REMARK    8  A    between atoms: _20  and  _22
REMARK    9  A    between atoms: _22  and  _23
REMARK   10  A    between atoms: _22  and  _25
REMARK   11  A    between atoms: _25  and  _26
REMARK   12  A    between atoms: _31  and  _33
REMARK   13  A    between atoms: _33  and  _34
REMARK   14  A    between atoms: _33  and  _36
REMARK   15  A    between atoms: _36  and  _37
REMARK   16  A    between atoms: _37  and  _38
REMARK   17  A    between atoms: _43  and  _45
REMARK   18  A    between atoms: _45  and  _46
REMARK   19  A    between atoms: _45  and  _48
REMARK   20  A    between atoms: _48  and  _49
REMARK   21  A    between atoms: _52  and  _54
REMARK   22  A    between atoms: _54  and  _55
REMARK   23  A    between atoms: _54  and  _57
REMARK   24  A    between atoms: _57  and  _58
REMARK   25  A    between atoms: _58  and  _59
REMARK   26  A    between atoms: _59  and  _60
REMARK   27  A    between atoms: _60  and  _61
REMARK   28  A    between atoms: _65  and  _67
REMARK   29  A    between atoms: _67  and  _68
REMARK   30  A    between atoms: _67  and  _70
REMARK   31  A    between atoms: _70  and  _71
REMARK   32  A    between atoms: _71  and  _72
REMARK   33  A    between atoms: _75  and  _77
REMARK   34  A    between atoms: _77  and  _78
REMARK   35  A    between atoms: _77  and  _80
REMARK   36  A    between atoms: _80  and  _81
REMARK   37  A    between atoms: _84  and  _86
REMARK   38  A    between atoms: _86  and  _87
REMARK   39  A    between atoms: _86  and  _89
REMARK   40  A    between atoms: _89  and  _90
REMARK   41  A    between atoms: _95  and  _96
REMARK   42  A    between atoms: _98  and  _100
REMARK   43  A    between atoms: _100  and  _101
REMARK   44  A    between atoms: _100  and  _103
REMARK   45  A    between atoms: _103  and  _104
REMARK   46  A    between atoms: _107  and  _109
REMARK   47  A    between atoms: _109  and  _110
REMARK   48  A    between atoms: _109  and  _112
REMARK   49  A    between atoms: _112  and  _113
REMARK   50  A    between atoms: _116  and  _118
REMARK   51  A    between atoms: _118  and  _119
REMARK   52  A    between atoms: _118  and  _121
REMARK   53  A    between atoms: _124  and  _126
REMARK   54  A    between atoms: _126  and  _127
REMARK   55  A    between atoms: _126  and  _129
REMARK   56  A    between atoms: _129  and  _130
REMARK   57  A    between atoms: _130  and  _131
REMARK   58  A    between atoms: _131  and  _132
REMARK   59  A    between atoms: _141  and  _143
REMARK   60  A    between atoms: _143  and  _144
REMARK   61  A    between atoms: _143  and  _146
REMARK   62  A    between atoms: _146  and  _147
REMARK   63  A    between atoms: _152  and  _154
REMARK   64  A    between atoms: _154  and  _155
REMARK   65  A    between atoms: _154  and  _157
REMARK   66  A    between atoms: _157  and  _158
REMARK   67  A    between atoms: _158  and  _159
REMARK   68  A    between atoms: _162  and  _164
REMARK   69  A    between atoms: _164  and  _165
REMARK   70  A    between atoms: _164  and  _167
REMARK   71  A    between atoms: _167  and  _168
REMARK   72  A    between atoms: _168  and  _169
REMARK   73  A    between atoms: _169  and  _170
REMARK   74  A    between atoms: _170  and  _171
REMARK   75  A    between atoms: _175  and  _177
REMARK   76  A    between atoms: _177  and  _178
REMARK   77  A    between atoms: _180  and  _182
REMARK   78  A    between atoms: _182  and  _183
REMARK   79  A    between atoms: _182  and  _185
REMARK   80  A    between atoms: _188  and  _190
REMARK   81  A    between atoms: _190  and  _191
REMARK   82  A    between atoms: _190  and  _193
REMARK   83  A    between atoms: _193  and  _194
REMARK   84  A    between atoms: _196  and  _198
REMARK   85  A    between atoms: _198  and  _199
REMARK   86  A    between atoms: _198  and  _201
REMARK   87  A    between atoms: _201  and  _202
REMARK   88  A    between atoms: _204  and  _206
REMARK   89  A    between atoms: _206  and  _207
REMARK   90  A    between atoms: _206  and  _209
REMARK   91  A    between atoms: _209  and  _210
REMARK   92  A    between atoms: _216  and  _218
REMARK   93  A    between atoms: _218  and  _219
REMARK   94  A    between atoms: _218  and  _221
REMARK   95  A    between atoms: _221  and  _222
REMARK   96  A    between atoms: _225  and  _227
REMARK   97  A    between atoms: _227  and  _228
REMARK   98  A    between atoms: _227  and  _230
REMARK   99  A    between atoms: _230  and  _231
REMARK  100  A    between atoms: _234  and  _236
REMARK  101  A    between atoms: _236  and  _237
REMARK  102  A    between atoms: _236  and  _239
REMARK  103  A    between atoms: _239  and  _240
REMARK  104  A    between atoms: _243  and  _245
REMARK  105  A    between atoms: _245  and  _246
REMARK  106  A    between atoms: _245  and  _248
REMARK  107  A    between atoms: _248  and  _249
REMARK  108  A    between atoms: _249  and  _250
REMARK  109  A    between atoms: _252  and  _254
REMARK  110  A    between atoms: _254  and  _255
REMARK  111  A    between atoms: _254  and  _257
REMARK  112  A    between atoms: _257  and  _258
REMARK  113  A    between atoms: _264  and  _266
REMARK  114  A    between atoms: _266  and  _267
REMARK  115  A    between atoms: _266  and  _269
REMARK  116  A    between atoms: _271  and  _273
REMARK  117  A    between atoms: _273  and  _274
REMARK  118  A    between atoms: _277  and  _279
REMARK  119  A    between atoms: _279  and  _280
REMARK  120  A    between atoms: _282  and  _284
REMARK  121  A    between atoms: _284  and  _285
REMARK  122  A    between atoms: _284  and  _287
REMARK  123  A    between atoms: _287  and  _288
REMARK  124  A    between atoms: _288  and  _289
REMARK  125  A    between atoms: _292  and  _294
REMARK  126  A    between atoms: _294  and  _295
REMARK  127  A    between atoms: _294  and  _297
REMARK  128  A    between atoms: _297  and  _298
REMARK  129  A    between atoms: _301  and  _303
REMARK  130  A    between atoms: _303  and  _304
REMARK  131  A    between atoms: _307  and  _309
REMARK  132  A    between atoms: _309  and  _310
REMARK  133  A    between atoms: _309  and  _312
REMARK  134  A    between atoms: _312  and  _313
REMARK  135  A    between atoms: _313  and  _436
REMARK  136  A    between atoms: _314  and  _316
REMARK  137  A    between atoms: _316  and  _317
REMARK  138  A    between atoms: _316  and  _319
REMARK  139  A    between atoms: _319  and  _320
REMARK  140  A    between atoms: _320  and  _321
REMARK  141  A    between atoms: _326  and  _328
REMARK  142  A    between atoms: _328  and  _329
REMARK  143  A    between atoms: _331  and  _333
REMARK  144  A    between atoms: _333  and  _334
REMARK  145  A    between atoms: _333  and  _336
REMARK  146  A    between atoms: _336  and  _337
REMARK  147  A    between atoms: _340  and  _342
REMARK  148  A    between atoms: _342  and  _343
REMARK  149  A    between atoms: _342  and  _345
REMARK  150  A    between atoms: _345  and  _346
REMARK  151  A    between atoms: _348  and  _350
REMARK  152  A    between atoms: _350  and  _351
REMARK  153  A    between atoms: _353  and  _355
REMARK  154  A    between atoms: _355  and  _356
REMARK  155  A    between atoms: _358  and  _360
REMARK  156  A    between atoms: _360  and  _361
REMARK  157  A    between atoms: _360  and  _363
REMARK  158  A    between atoms: _363  and  _364
REMARK  159  A    between atoms: _369  and  _371
REMARK  160  A    between atoms: _371  and  _372
REMARK  161  A    between atoms: _371  and  _374
REMARK  162  A    between atoms: _374  and  _375
REMARK  163  A    between atoms: _378  and  _380
REMARK  164  A    between atoms: _380  and  _381
REMARK  165  A    between atoms: _380  and  _383
REMARK  166  A    between atoms: _386  and  _388
REMARK  167  A    between atoms: _388  and  _389
REMARK  168  A    between atoms: _388  and  _391
REMARK  169  A    between atoms: _391  and  _392
REMARK  170  A    between atoms: _394  and  _396
REMARK  171  A    between atoms: _396  and  _397
REMARK  172  A    between atoms: _396  and  _399
REMARK  173  A    between atoms: _399  and  _400
REMARK  174  A    between atoms: _410  and  _412
REMARK  175  A    between atoms: _412  and  _413
REMARK  176  A    between atoms: _415  and  _417
REMARK  177  A    between atoms: _417  and  _418
REMARK  178  A    between atoms: _417  and  _420
REMARK  179  A    between atoms: _420  and  _421
REMARK  180  A    between atoms: _421  and  _422
REMARK  181  A    between atoms: _425  and  _427
REMARK  182  A    between atoms: _427  and  _428
REMARK  183  A    between atoms: _430  and  _432
REMARK  184  A    between atoms: _432  and  _433
REMARK  185  A    between atoms: _432  and  _435
REMARK  186  A    between atoms: _435  and  _436
REMARK  187  A    between atoms: _437  and  _439
REMARK  188  A    between atoms: _439  and  _440
REMARK  189  A    between atoms: _443  and  _445
REMARK  190  A    between atoms: _445  and  _446
REMARK  191  A    between atoms: _445  and  _448
REMARK  192  A    between atoms: _448  and  _449
REMARK  193  A    between atoms: _449  and  _450
REMARK  194  A    between atoms: _450  and  _451
REMARK  195  A    between atoms: _460  and  _462
REMARK  196  A    between atoms: _462  and  _463
REMARK  197  A    between atoms: _462  and  _465
REMARK  198  A    between atoms: _465  and  _466
REMARK  199  A    between atoms: _466  and  _467
REMARK  200  A    between atoms: _467  and  _468
REMARK  201  A    between atoms: _468  and  _469
REMARK  202  A    between atoms: _473  and  _475
REMARK  203  A    between atoms: _475  and  _476
REMARK  204  A    between atoms: _475  and  _478
REMARK  205  A    between atoms: _478  and  _479
REMARK  206  A    between atoms: _484  and  _485
REMARK  207  A    between atoms: _487  and  _489
REMARK  208  A    between atoms: _489  and  _490
REMARK  209  A    between atoms: _492  and  _494
REMARK  210  A    between atoms: _494  and  _495
REMARK  211  A    between atoms: _494  and  _497
REMARK  212  A    between atoms: _497  and  _498
REMARK  213  A    between atoms: _501  and  _503
REMARK  214  A    between atoms: _503  and  _504
REMARK  215  A    between atoms: _503  and  _506
REMARK  216  A    between atoms: _506  and  _507
REMARK  217  A    between atoms: _512  and  _513
REMARK  218  A    between atoms: _515  and  _517
REMARK  219  A    between atoms: _517  and  _518
REMARK  220  A    between atoms: _517  and  _520
REMARK  221  A    between atoms: _520  and  _521
REMARK                            x       y       z     vdW  Elec       q    Type
REMARK                         _______ _______ _______ _____ _____    ______ ____
ROOT
ATOM      1  O   HOH     1      17.103  -1.414  13.176  0.00  0.00    +0.000 OA
ENDROOT
TORSDOF 0
REMARK  Name = ../refined-set-2016/2vwm/2vwm_pocket.pdb
REMARK  221 active torsions:
REMARK  status: ('A' for Active; 'I' for Inactive)
REMARK    1  A    between atoms: _1  and  _5
REMARK    2  A    between atoms: _5  and  _6
REMARK    3  A    between atoms: _5  and  _8
REMARK    4  A    between atoms: _8  and  _9
REMARK    5  A    between atoms: _12  and  _14
REMARK    6  A    between atoms: _14  and  _15
REMARK    7  A    between atoms: _14  and  _17
REMARK    8  A    between atoms: _20  and  _22
REMARK    9  A    between atoms: _22  and  _23
REMARK   10  A    between atoms: _22  and  _25
REMARK   11  A    between atoms: _25  and  _26
REMARK   12  A    between atoms: _31  and  _33
REMARK   13  A    between atoms: _33  and  _34
REMARK   14  A    between atoms: _33  and  _36
REMARK   15  A    between atoms: _36  and  _37
REMARK   16  A    between atoms: _37  and  _38
REMARK   17  A    between atoms: _43  and  _45
REMARK   18  A    between atoms: _45  and  _46
REMARK   19  A    between atoms: _45  and  _48
REMARK   20  A    between atoms: _48  and  _49
REMARK   21  A    between atoms: _52  and  _54
REMARK   22  A    between atoms: _54  and  _55
REMARK   23  A    between atoms: _54  and  _57
REMARK   24  A    between atoms: _57  and  _58
REMARK   25  A    between atoms: _58  and  _59
REMARK   26  A    between atoms: _59  and  _60
REMARK   27  A    between atoms: _60  and  _61
REMARK   28  A    between atoms: _65  and  _67
REMARK   29  A    between atoms: _67  and  _68
REMARK   30  A    between atoms: _67  and  _70
REMARK   31  A    between atoms: _70  and  _71
REMARK   32  A    between atoms: _71  and  _72
REMARK   33  A    between atoms: _75  and  _77
REMARK   34  A    between atoms: _77  and  _78
REMARK   35  A    between atoms: _77  and  _80
REMARK   36  A    between atoms: _80  and  _81
REMARK   37  A    between atoms: _84  and  _86
REMARK   38  A    between atoms: _86  and  _87
REMARK   39  A    between atoms: _86  and  _89
REMARK   40  A    between atoms: _89  and  _90
REMARK   41  A    between atoms: _95  and  _96
REMARK   42  A    between atoms: _98  and  _100
REMARK   43  A    between atoms: _100  and  _101
REMARK   44  A    between atoms: _100  and  _103
REMARK   45  A    between atoms: _103  and  _104
REMARK   46  A    between atoms: _107  and  _109
REMARK   47  A    between atoms: _109  and  _110
REMARK   48  A    between atoms: _109  and  _112
REMARK   49  A    between atoms: _112  and  _113
REMARK   50  A    between atoms: _116  and  _118
REMARK   51  A    between atoms: _118  and  _119
REMARK   52  A    between atoms: _118  and  _121
REMARK   53  A    between atoms: _124  and  _126
REMARK   54  A    between atoms: _126  and  _127
REMARK   55  A    between atoms: _126  and  _129
REMARK   56  A    between atoms: _129  and  _130
REMARK   57  A    between atoms: _130  and  _131
REMARK   58  A    between atoms: _131  and  _132
REMARK   59  A    between atoms: _141  and  _143
REMARK   60  A    between atoms: _143  and  _144
REMARK   61  A    between atoms: _143  and  _146
REMARK   62  A    between atoms: _146  and  _147
REMARK   63  A    between atoms: _152  and  _154
REMARK   64  A    between atoms: _154  and  _155
REMARK   65  A    between atoms: _154  and  _157
REMARK   66  A    between atoms: _157  and  _158
REMARK   67  A    between atoms: _158  and  _159
REMARK   68  A    between atoms: _162  and  _164
REMARK   69  A    between atoms: _164  and  _165
REMARK   70  A    between atoms: _164  and  _167
REMARK   71  A    between atoms: _167  and  _168
REMARK   72  A    between atoms: _168  and  _169
REMARK   73  A    between atoms: _169  and  _170
REMARK   74  A    between atoms: _170  and  _171
REMARK   75  A    between atoms: _175  and  _177
REMARK   76  A    between atoms: _177  and  _178
REMARK   77  A    between atoms: _180  and  _182
REMARK   78  A    between atoms: _182  and  _183
REMARK   79  A    between atoms: _182  and  _185
REMARK   80  A    between atoms: _188  and  _190
REMARK   81  A    between atoms: _190  and  _191
REMARK   82  A    between atoms: _190  and  _193
REMARK   83  A    between atoms: _193  and  _194
REMARK   84  A    between atoms: _196  and  _198
REMARK   85  A    between atoms: _198  and  _199
REMARK   86  A    between atoms: _198  and  _201
REMARK   87  A    between atoms: _201  and  _202
REMARK   88  A    between atoms: _204  and  _206
REMARK   89  A    between atoms: _206  and  _207
REMARK   90  A    between atoms: _206  and  _209
REMARK   91  A    between atoms: _209  and  _210
REMARK   92  A    between atoms: _216  and  _218
REMARK   93  A    between atoms: _218  and  _219
REMARK   94  A    between atoms: _218  and  _221
REMARK   95  A    between atoms: _221  and  _222
REMARK   96  A    between atoms: _225  and  _227
REMARK   97  A    between atoms: _227  and  _228
REMARK   98  A    between atoms: _227  and  _230
REMARK   99  A    between atoms: _230  and  _231
REMARK  100  A    between atoms: _234  and  _236
REMARK  101  A    between atoms: _236  and  _237
REMARK  102  A    between atoms: _236  and  _239
REMARK  103  A    between atoms: _239  and  _240
REMARK  104  A    between atoms: _243  and  _245
REMARK  105  A    between atoms: _245  and  _246
REMARK  106  A    between atoms: _245  and  _248
REMARK  107  A    between atoms: _248  and  _249
REMARK  108  A    between atoms: _249  and  _250
REMARK  109  A    between atoms: _252  and  _254
REMARK  110  A    between atoms: _254  and  _255
REMARK  111  A    between atoms: _254  and  _257
REMARK  112  A    between atoms: _257  and  _258
REMARK  113  A    between atoms: _264  and  _266
REMARK  114  A    between atoms: _266  and  _267
REMARK  115  A    between atoms: _266  and  _269
REMARK  116  A    between atoms: _271  and  _273
REMARK  117  A    between atoms: _273  and  _274
REMARK  118  A    between atoms: _277  and  _279
REMARK  119  A    between atoms: _279  and  _280
REMARK  120  A    between atoms: _282  and  _284
REMARK  121  A    between atoms: _284  and  _285
REMARK  122  A    between atoms: _284  and  _287
REMARK  123  A    between atoms: _287  and  _288
REMARK  124  A    between atoms: _288  and  _289
REMARK  125  A    between atoms: _292  and  _294
REMARK  126  A    between atoms: _294  and  _295
REMARK  127  A    between atoms: _294  and  _297
REMARK  128  A    between atoms: _297  and  _298
REMARK  129  A    between atoms: _301  and  _303
REMARK  130  A    between atoms: _303  and  _304
REMARK  131  A    between atoms: _307  and  _309
REMARK  132  A    between atoms: _309  and  _310
REMARK  133  A    between atoms: _309  and  _312
REMARK  134  A    between atoms: _312  and  _313
REMARK  135  A    between atoms: _313  and  _436
REMARK  136  A    between atoms: _314  and  _316
REMARK  137  A    between atoms: _316  and  _317
REMARK  138  A    between atoms: _316  and  _319
REMARK  139  A    between atoms: _319  and  _320
REMARK  140  A    between atoms: _320  and  _321
REMARK  141  A    between atoms: _326  and  _328
REMARK  142  A    between atoms: _328  and  _329
REMARK  143  A    between atoms: _331  and  _333
REMARK  144  A    between atoms: _333  and  _334
REMARK  145  A    between atoms: _333  and  _336
REMARK  146  A    between atoms: _336  and  _337
REMARK  147  A    between atoms: _340  and  _342
REMARK  148  A    between atoms: _342  and  _343
REMARK  149  A    between atoms: _342  and  _345
REMARK  150  A    between atoms: _345  and  _346
REMARK  151  A    between atoms: _348  and  _350
REMARK  152  A    between atoms: _350  and  _351
REMARK  153  A    between atoms: _353  and  _355
REMARK  154  A    between atoms: _355  and  _356
REMARK  155  A    between atoms: _358  and  _360
REMARK  156  A    between atoms: _360  and  _361
REMARK  157  A    between atoms: _360  and  _363
REMARK  158  A    between atoms: _363  and  _364
REMARK  159  A    between atoms: _369  and  _371
REMARK  160  A    between atoms: _371  and  _372
REMARK  161  A    between atoms: _371  and  _374
REMARK  162  A    between atoms: _374  and  _375
REMARK  163  A    between atoms: _378  and  _380
REMARK  164  A    between atoms: _380  and  _381
REMARK  165  A    between atoms: _380  and  _383
REMARK  166  A    between atoms: _386  and  _388
REMARK  167  A    between atoms: _388  and  _389
REMARK  168  A    between atoms: _388  and  _391
REMARK  169  A    between atoms: _391  and  _392
REMARK  170  A    between atoms: _394  and  _396
REMARK  171  A    between atoms: _396  and  _397
REMARK  172  A    between atoms: _396  and  _399
REMARK  173  A    between atoms: _399  and  _400
REMARK  174  A    between atoms: _410  and  _412
REMARK  175  A    between atoms: _412  and  _413
REMARK  176  A    between atoms: _415  and  _417
REMARK  177  A    between atoms: _417  and  _418
REMARK  178  A    between atoms: _417  and  _420
REMARK  179  A    between atoms: _420  and  _421
REMARK  180  A    between atoms: _421  and  _422
REMARK  181  A    between atoms: _425  and  _427
REMARK  182  A    between atoms: _427  and  _428
REMARK  183  A    between atoms: _430  and  _432
REMARK  184  A    between atoms: _432  and  _433
REMARK  185  A    between atoms: _432  and  _435
REMARK  186  A    between atoms: _435  and  _436
REMARK  187  A    between atoms: _437  and  _439
REMARK  188  A    between atoms: _439  and  _440
REMARK  189  A    between atoms: _443  and  _445
REMARK  190  A    between atoms: _445  and  _446
REMARK  191  A    between atoms: _445  and  _448
REMARK  192  A    between atoms: _448  and  _449
REMARK  193  A    between atoms: _449  and  _450
REMARK  194  A    between atoms: _450  and  _451
REMARK  195  A    between atoms: _460  and  _462
REMARK  196  A    between atoms: _462  and  _463
REMARK  197  A    between atoms: _462  and  _465
REMARK  198  A    between atoms: _465  and  _466
REMARK  199  A    between atoms: _466  and  _467
REMARK  200  A    between atoms: _467  and  _468
REMARK  201  A    between atoms: _468  and  _469
REMARK  202  A    between atoms: _473  and  _475
REMARK  203  A    between atoms: _475  and  _476
REMARK  204  A    between atoms: _475  and  _478
REMARK  205  A    between atoms: _478  and  _479
REMARK  206  A    between atoms: _484  and  _485
REMARK  207  A    between atoms: _487  and  _489
REMARK  208  A    between atoms: _489  and  _490
REMARK  209  A    between atoms: _492  and  _494
REMARK  210  A    between atoms: _494  and  _495
REMARK  211  A    between atoms: _494  and  _497
REMARK  212  A    between atoms: _497  and  _498
REMARK  213  A    between atoms: _501  and  _503
REMARK  214  A    between atoms: _503  and  _504
REMARK  215  A    between atoms: _503  and  _506
REMARK  216  A    between atoms: _506  and  _507
REMARK  217  A    between atoms: _512  and  _513
REMARK  218  A    between atoms: _515  and  _517
REMARK  219  A    between atoms: _517  and  _518
REMARK  220  A    between atoms: _517  and  _520
REMARK  221  A    between atoms: _520  and  _521
REMARK                            x       y       z     vdW  Elec       q    Type
REMARK                         _______ _______ _______ _____ _____    ______ ____
ROOT
ATOM      1  O   HOH     1      21.245   1.738  18.924  0.00  0.00    +0.000 OA
ENDROOT
TORSDOF 0
REMARK  Name = ../refined-set-2016/2vwm/2vwm_pocket.pdb
REMARK  221 active torsions:
REMARK  status: ('A' for Active; 'I' for Inactive)
REMARK    1  A    between atoms: _1  and  _5
REMARK    2  A    between atoms: _5  and  _6
REMARK    3  A    between atoms: _5  and  _8
REMARK    4  A    between atoms: _8  and  _9
REMARK    5  A    between atoms: _12  and  _14
REMARK    6  A    between atoms: _14  and  _15
REMARK    7  A    between atoms: _14  and  _17
REMARK    8  A    between atoms: _20  and  _22
REMARK    9  A    between atoms: _22  and  _23
REMARK   10  A    between atoms: _22  and  _25
REMARK   11  A    between atoms: _25  and  _26
REMARK   12  A    between atoms: _31  and  _33
REMARK   13  A    between atoms: _33  and  _34
REMARK   14  A    between atoms: _33  and  _36
REMARK   15  A    between atoms: _36  and  _37
REMARK   16  A    between atoms: _37  and  _38
REMARK   17  A    between atoms: _43  and  _45
REMARK   18  A    between atoms: _45  and  _46
REMARK   19  A    between atoms: _45  and  _48
REMARK   20  A    between atoms: _48  and  _49
REMARK   21  A    between atoms: _52  and  _54
REMARK   22  A    between atoms: _54  and  _55
REMARK   23  A    between atoms: _54  and  _57
REMARK   24  A    between atoms: _57  and  _58
REMARK   25  A    between atoms: _58  and  _59
REMARK   26  A    between atoms: _59  and  _60
REMARK   27  A    between atoms: _60  and  _61
REMARK   28  A    between atoms: _65  and  _67
REMARK   29  A    between atoms: _67  and  _68
REMARK   30  A    between atoms: _67  and  _70
REMARK   31  A    between atoms: _70  and  _71
REMARK   32  A    between atoms: _71  and  _72
REMARK   33  A    between atoms: _75  and  _77
REMARK   34  A    between atoms: _77  and  _78
REMARK   35  A    between atoms: _77  and  _80
REMARK   36  A    between atoms: _80  and  _81
REMARK   37  A    between atoms: _84  and  _86
REMARK   38  A    between atoms: _86  and  _87
REMARK   39  A    between atoms: _86  and  _89
REMARK   40  A    between atoms: _89  and  _90
REMARK   41  A    between atoms: _95  and  _96
REMARK   42  A    between atoms: _98  and  _100
REMARK   43  A    between atoms: _100  and  _101
REMARK   44  A    between atoms: _100  and  _103
REMARK   45  A    between atoms: _103  and  _104
REMARK   46  A    between atoms: _107  and  _109
REMARK   47  A    between atoms: _109  and  _110
REMARK   48  A    between atoms: _109  and  _112
REMARK   49  A    between atoms: _112  and  _113
REMARK   50  A    between atoms: _116  and  _118
REMARK   51  A    between atoms: _118  and  _119
REMARK   52  A    between atoms: _118  and  _121
REMARK   53  A    between atoms: _124  and  _126
REMARK   54  A    between atoms: _126  and  _127
REMARK   55  A    between atoms: _126  and  _129
REMARK   56  A    between atoms: _129  and  _130
REMARK   57  A    between atoms: _130  and  _131
REMARK   58  A    between atoms: _131  and  _132
REMARK   59  A    between atoms: _141  and  _143
REMARK   60  A    between atoms: _143  and  _144
REMARK   61  A    between atoms: _143  and  _146
REMARK   62  A    between atoms: _146  and  _147
REMARK   63  A    between atoms: _152  and  _154
REMARK   64  A    between atoms: _154  and  _155
REMARK   65  A    between atoms: _154  and  _157
REMARK   66  A    between atoms: _157  and  _158
REMARK   67  A    between atoms: _158  and  _159
REMARK   68  A    between atoms: _162  and  _164
REMARK   69  A    between atoms: _164  and  _165
REMARK   70  A    between atoms: _164  and  _167
REMARK   71  A    between atoms: _167  and  _168
REMARK   72  A    between atoms: _168  and  _169
REMARK   73  A    between atoms: _169  and  _170
REMARK   74  A    between atoms: _170  and  _171
REMARK   75  A    between atoms: _175  and  _177
REMARK   76  A    between atoms: _177  and  _178
REMARK   77  A    between atoms: _180  and  _182
REMARK   78  A    between atoms: _182  and  _183
REMARK   79  A    between atoms: _182  and  _185
REMARK   80  A    between atoms: _188  and  _190
REMARK   81  A    between atoms: _190  and  _191
REMARK   82  A    between atoms: _190  and  _193
REMARK   83  A    between atoms: _193  and  _194
REMARK   84  A    between atoms: _196  and  _198
REMARK   85  A    between atoms: _198  and  _199
REMARK   86  A    between atoms: _198  and  _201
REMARK   87  A    between atoms: _201  and  _202
REMARK   88  A    between atoms: _204  and  _206
REMARK   89  A    between atoms: _206  and  _207
REMARK   90  A    between atoms: _206  and  _209
REMARK   91  A    between atoms: _209  and  _210
REMARK   92  A    between atoms: _216  and  _218
REMARK   93  A    between atoms: _218  and  _219
REMARK   94  A    between atoms: _218  and  _221
REMARK   95  A    between atoms: _221  and  _222
REMARK   96  A    between atoms: _225  and  _227
REMARK   97  A    between atoms: _227  and  _228
REMARK   98  A    between atoms: _227  and  _230
REMARK   99  A    between atoms: _230  and  _231
REMARK  100  A    between atoms: _234  and  _236
REMARK  101  A    between atoms: _236  and  _237
REMARK  102  A    between atoms: _236  and  _239
REMARK  103  A    between atoms: _239  and  _240
REMARK  104  A    between atoms: _243  and  _245
REMARK  105  A    between atoms: _245  and  _246
REMARK  106  A    between atoms: _245  and  _248
REMARK  107  A    between atoms: _248  and  _249
REMARK  108  A    between atoms: _249  and  _250
REMARK  109  A    between atoms: _252  and  _254
REMARK  110  A    between atoms: _254  and  _255
REMARK  111  A    between atoms: _254  and  _257
REMARK  112  A    between atoms: _257  and  _258
REMARK  113  A    between atoms: _264  and  _266
REMARK  114  A    between atoms: _266  and  _267
REMARK  115  A    between atoms: _266  and  _269
REMARK  116  A    between atoms: _271  and  _273
REMARK  117  A    between atoms: _273  and  _274
REMARK  118  A    between atoms: _277  and  _279
REMARK  119  A    between atoms: _279  and  _280
REMARK  120  A    between atoms: _282  and  _284
REMARK  121  A    between atoms: _284  and  _285
REMARK  122  A    between atoms: _284  and  _287
REMARK  123  A    between atoms: _287  and  _288
REMARK  124  A    between atoms: _288  and  _289
REMARK  125  A    between atoms: _292  and  _294
REMARK  126  A    between atoms: _294  and  _295
REMARK  127  A    between atoms: _294  and  _297
REMARK  128  A    between atoms: _297  and  _298
REMARK  129  A    between atoms: _301  and  _303
REMARK  130  A    between atoms: _303  and  _304
REMARK  131  A    between atoms: _307  and  _309
REMARK  132  A    between atoms: _309  and  _310
REMARK  133  A    between atoms: _309  and  _312
REMARK  134  A    between atoms: _312  and  _313
REMARK  135  A    between atoms: _313  and  _436
REMARK  136  A    between atoms: _314  and  _316
REMARK  137  A    between atoms: _316  and  _317
REMARK  138  A    between atoms: _316  and  _319
REMARK  139  A    between atoms: _319  and  _320
REMARK  140  A    between atoms: _320  and  _321
REMARK  141  A    between atoms: _326  and  _328
REMARK  142  A    between atoms: _328  and  _329
REMARK  143  A    between atoms: _331  and  _333
REMARK  144  A    between atoms: _333  and  _334
REMARK  145  A    between atoms: _333  and  _336
REMARK  146  A    between atoms: _336  and  _337
REMARK  147  A    between atoms: _340  and  _342
REMARK  148  A    between atoms: _342  and  _343
REMARK  149  A    between atoms: _342  and  _345
REMARK  150  A    between atoms: _345  and  _346
REMARK  151  A    between atoms: _348  and  _350
REMARK  152  A    between atoms: _350  and  _351
REMARK  153  A    between atoms: _353  and  _355
REMARK  154  A    between atoms: _355  and  _356
REMARK  155  A    between atoms: _358  and  _360
REMARK  156  A    between atoms: _360  and  _361
REMARK  157  A    between atoms: _360  and  _363
REMARK  158  A    between atoms: _363  and  _364
REMARK  159  A    between atoms: _369  and  _371
REMARK  160  A    between atoms: _371  and  _372
REMARK  161  A    between atoms: _371  and  _374
REMARK  162  A    between atoms: _374  and  _375
REMARK  163  A    between atoms: _378  and  _380
REMARK  164  A    between atoms: _380  and  _381
REMARK  165  A    between atoms: _380  and  _383
REMARK  166  A    between atoms: _386  and  _388
REMARK  167  A    between atoms: _388  and  _389
REMARK  168  A    between atoms: _388  and  _391
REMARK  169  A    between atoms: _391  and  _392
REMARK  170  A    between atoms: _394  and  _396
REMARK  171  A    between atoms: _396  and  _397
REMARK  172  A    between atoms: _396  and  _399
REMARK  173  A    between atoms: _399  and  _400
REMARK  174  A    between atoms: _410  and  _412
REMARK  175  A    between atoms: _412  and  _413
REMARK  176  A    between atoms: _415  and  _417
REMARK  177  A    between atoms: _417  and  _418
REMARK  178  A    between atoms: _417  and  _420
REMARK  179  A    between atoms: _420  and  _421
REMARK  180  A    between atoms: _421  and  _422
REMARK  181  A    between atoms: _425  and  _427
REMARK  182  A    between atoms: _427  and  _428
REMARK  183  A    between atoms: _430  and  _432
REMARK  184  A    between atoms: _432  and  _433
REMARK  185  A    between atoms: _432  and  _435
REMARK  186  A    between atoms: _435  and  _436
REMARK  187  A    between atoms: _437  and  _439
REMARK  188  A    between atoms: _439  and  _440
REMARK  189  A    between atoms: _443  and  _445
REMARK  190  A    between atoms: _445  and  _446
REMARK  191  A    between atoms: _445  and  _448
REMARK  192  A    between atoms: _448  and  _449
REMARK  193  A    between atoms: _449  and  _450
REMARK  194  A    between atoms: _450  and  _451
REMARK  195  A    between atoms: _460  and  _462
REMARK  196  A    between atoms: _462  and  _463
REMARK  197  A    between atoms: _462  and  _465
REMARK  198  A    between atoms: _465  and  _466
REMARK  199  A    between atoms: _466  and  _467
REMARK  200  A    between atoms: _467  and  _468
REMARK  201  A    between atoms: _468  and  _469
REMARK  202  A    between atoms: _473  and  _475
REMARK  203  A    between atoms: _475  and  _476
REMARK  204  A    between atoms: _475  and  _478
REMARK  205  A    between atoms: _478  and  _479
REMARK  206  A    between atoms: _484  and  _485
REMARK  207  A    between atoms: _487  and  _489
REMARK  208  A    between atoms: _489  and  _490
REMARK  209  A    between atoms: _492  and  _494
REMARK  210  A    between atoms: _494  and  _495
REMARK  211  A    between atoms: _494  and  _497
REMARK  212  A    between atoms: _497  and  _498
REMARK  213  A    between atoms: _501  and  _503
REMARK  214  A    between atoms: _503  and  _504
REMARK  215  A    between atoms: _503  and  _506
REMARK  216  A    between atoms: _506  and  _507
REMARK  217  A    between atoms: _512  and  _513
REMARK  218  A    between atoms: _515  and  _517
REMARK  219  A    between atoms: _517  and  _518
REMARK  220  A    between atoms: _517  and  _520
REMARK  221  A    between atoms: _520  and  _521
REMARK                            x       y       z     vdW  Elec       q    Type
REMARK                         _______ _______ _______ _____ _____    ______ ____
ROOT
ATOM      1  O   HOH     1       7.422   4.020  20.429  0.00  0.00    +0.000 OA
ENDROOT
TORSDOF 0
REMARK  Name = ../refined-set-2016/2vwm/2vwm_pocket.pdb
REMARK  221 active torsions:
REMARK  status: ('A' for Active; 'I' for Inactive)
REMARK    1  A    between atoms: _1  and  _5
REMARK    2  A    between atoms: _5  and  _6
REMARK    3  A    between atoms: _5  and  _8
REMARK    4  A    between atoms: _8  and  _9
REMARK    5  A    between atoms: _12  and  _14
REMARK    6  A    between atoms: _14  and  _15
REMARK    7  A    between atoms: _14  and  _17
REMARK    8  A    between atoms: _20  and  _22
REMARK    9  A    between atoms: _22  and  _23
REMARK   10  A    between atoms: _22  and  _25
REMARK   11  A    between atoms: _25  and  _26
REMARK   12  A    between atoms: _31  and  _33
REMARK   13  A    between atoms: _33  and  _34
REMARK   14  A    between atoms: _33  and  _36
REMARK   15  A    between atoms: _36  and  _37
REMARK   16  A    between atoms: _37  and  _38
REMARK   17  A    between atoms: _43  and  _45
REMARK   18  A    between atoms: _45  and  _46
REMARK   19  A    between atoms: _45  and  _48
REMARK   20  A    between atoms: _48  and  _49
REMARK   21  A    between atoms: _52  and  _54
REMARK   22  A    between atoms: _54  and  _55
REMARK   23  A    between atoms: _54  and  _57
REMARK   24  A    between atoms: _57  and  _58
REMARK   25  A    between atoms: _58  and  _59
REMARK   26  A    between atoms: _59  and  _60
REMARK   27  A    between atoms: _60  and  _61
REMARK   28  A    between atoms: _65  and  _67
REMARK   29  A    between atoms: _67  and  _68
REMARK   30  A    between atoms: _67  and  _70
REMARK   31  A    between atoms: _70  and  _71
REMARK   32  A    between atoms: _71  and  _72
REMARK   33  A    between atoms: _75  and  _77
REMARK   34  A    between atoms: _77  and  _78
REMARK   35  A    between atoms: _77  and  _80
REMARK   36  A    between atoms: _80  and  _81
REMARK   37  A    between atoms: _84  and  _86
REMARK   38  A    between atoms: _86  and  _87
REMARK   39  A    between atoms: _86  and  _89
REMARK   40  A    between atoms: _89  and  _90
REMARK   41  A    between atoms: _95  and  _96
REMARK   42  A    between atoms: _98  and  _100
REMARK   43  A    between atoms: _100  and  _101
REMARK   44  A    between atoms: _100  and  _103
REMARK   45  A    between atoms: _103  and  _104
REMARK   46  A    between atoms: _107  and  _109
REMARK   47  A    between atoms: _109  and  _110
REMARK   48  A    between atoms: _109  and  _112
REMARK   49  A    between atoms: _112  and  _113
REMARK   50  A    between atoms: _116  and  _118
REMARK   51  A    between atoms: _118  and  _119
REMARK   52  A    between atoms: _118  and  _121
REMARK   53  A    between atoms: _124  and  _126
REMARK   54  A    between atoms: _126  and  _127
REMARK   55  A    between atoms: _126  and  _129
REMARK   56  A    between atoms: _129  and  _130
REMARK   57  A    between atoms: _130  and  _131
REMARK   58  A    between atoms: _131  and  _132
REMARK   59  A    between atoms: _141  and  _143
REMARK   60  A    between atoms: _143  and  _144
REMARK   61  A    between atoms: _143  and  _146
REMARK   62  A    between atoms: _146  and  _147
REMARK   63  A    between atoms: _152  and  _154
REMARK   64  A    between atoms: _154  and  _155
REMARK   65  A    between atoms: _154  and  _157
REMARK   66  A    between atoms: _157  and  _158
REMARK   67  A    between atoms: _158  and  _159
REMARK   68  A    between atoms: _162  and  _164
REMARK   69  A    between atoms: _164  and  _165
REMARK   70  A    between atoms: _164  and  _167
REMARK   71  A    between atoms: _167  and  _168
REMARK   72  A    between atoms: _168  and  _169
REMARK   73  A    between atoms: _169  and  _170
REMARK   74  A    between atoms: _170  and  _171
REMARK   75  A    between atoms: _175  and  _177
REMARK   76  A    between atoms: _177  and  _178
REMARK   77  A    between atoms: _180  and  _182
REMARK   78  A    between atoms: _182  and  _183
REMARK   79  A    between atoms: _182  and  _185
REMARK   80  A    between atoms: _188  and  _190
REMARK   81  A    between atoms: _190  and  _191
REMARK   82  A    between atoms: _190  and  _193
REMARK   83  A    between atoms: _193  and  _194
REMARK   84  A    between atoms: _196  and  _198
REMARK   85  A    between atoms: _198  and  _199
REMARK   86  A    between atoms: _198  and  _201
REMARK   87  A    between atoms: _201  and  _202
REMARK   88  A    between atoms: _204  and  _206
REMARK   89  A    between atoms: _206  and  _207
REMARK   90  A    between atoms: _206  and  _209
REMARK   91  A    between atoms: _209  and  _210
REMARK   92  A    between atoms: _216  and  _218
REMARK   93  A    between atoms: _218  and  _219
REMARK   94  A    between atoms: _218  and  _221
REMARK   95  A    between atoms: _221  and  _222
REMARK   96  A    between atoms: _225  and  _227
REMARK   97  A    between atoms: _227  and  _228
REMARK   98  A    between atoms: _227  and  _230
REMARK   99  A    between atoms: _230  and  _231
REMARK  100  A    between atoms: _234  and  _236
REMARK  101  A    between atoms: _236  and  _237
REMARK  102  A    between atoms: _236  and  _239
REMARK  103  A    between atoms: _239  and  _240
REMARK  104  A    between atoms: _243  and  _245
REMARK  105  A    between atoms: _245  and  _246
REMARK  106  A    between atoms: _245  and  _248
REMARK  107  A    between atoms: _248  and  _249
REMARK  108  A    between atoms: _249  and  _250
REMARK  109  A    between atoms: _252  and  _254
REMARK  110  A    between atoms: _254  and  _255
REMARK  111  A    between atoms: _254  and  _257
REMARK  112  A    between atoms: _257  and  _258
REMARK  113  A    between atoms: _264  and  _266
REMARK  114  A    between atoms: _266  and  _267
REMARK  115  A    between atoms: _266  and  _269
REMARK  116  A    between atoms: _271  and  _273
REMARK  117  A    between atoms: _273  and  _274
REMARK  118  A    between atoms: _277  and  _279
REMARK  119  A    between atoms: _279  and  _280
REMARK  120  A    between atoms: _282  and  _284
REMARK  121  A    between atoms: _284  and  _285
REMARK  122  A    between atoms: _284  and  _287
REMARK  123  A    between atoms: _287  and  _288
REMARK  124  A    between atoms: _288  and  _289
REMARK  125  A    between atoms: _292  and  _294
REMARK  126  A    between atoms: _294  and  _295
REMARK  127  A    between atoms: _294  and  _297
REMARK  128  A    between atoms: _297  and  _298
REMARK  129  A    between atoms: _301  and  _303
REMARK  130  A    between atoms: _303  and  _304
REMARK  131  A    between atoms: _307  and  _309
REMARK  132  A    between atoms: _309  and  _310
REMARK  133  A    between atoms: _309  and  _312
REMARK  134  A    between atoms: _312  and  _313
REMARK  135  A    between atoms: _313  and  _436
REMARK  136  A    between atoms: _314  and  _316
REMARK  137  A    between atoms: _316  and  _317
REMARK  138  A    between atoms: _316  and  _319
REMARK  139  A    between atoms: _319  and  _320
REMARK  140  A    between atoms: _320  and  _321
REMARK  141  A    between atoms: _326  and  _328
REMARK  142  A    between atoms: _328  and  _329
REMARK  143  A    between atoms: _331  and  _333
REMARK  144  A    between atoms: _333  and  _334
REMARK  145  A    between atoms: _333  and  _336
REMARK  146  A    between atoms: _336  and  _337
REMARK  147  A    between atoms: _340  and  _342
REMARK  148  A    between atoms: _342  and  _343
REMARK  149  A    between atoms: _342  and  _345
REMARK  150  A    between atoms: _345  and  _346
REMARK  151  A    between atoms: _348  and  _350
REMARK  152  A    between atoms: _350  and  _351
REMARK  153  A    between atoms: _353  and  _355
REMARK  154  A    between atoms: _355  and  _356
REMARK  155  A    between atoms: _358  and  _360
REMARK  156  A    between atoms: _360  and  _361
REMARK  157  A    between atoms: _360  and  _363
REMARK  158  A    between atoms: _363  and  _364
REMARK  159  A    between atoms: _369  and  _371
REMARK  160  A    between atoms: _371  and  _372
REMARK  161  A    between atoms: _371  and  _374
REMARK  162  A    between atoms: _374  and  _375
REMARK  163  A    between atoms: _378  and  _380
REMARK  164  A    between atoms: _380  and  _381
REMARK  165  A    between atoms: _380  and  _383
REMARK  166  A    between atoms: _386  and  _388
REMARK  167  A    between atoms: _388  and  _389
REMARK  168  A    between atoms: _388  and  _391
REMARK  169  A    between atoms: _391  and  _392
REMARK  170  A    between atoms: _394  and  _396
REMARK  171  A    between atoms: _396  and  _397
REMARK  172  A    between atoms: _396  and  _399
REMARK  173  A    between atoms: _399  and  _400
REMARK  174  A    between atoms: _410  and  _412
REMARK  175  A    between atoms: _412  and  _413
REMARK  176  A    between atoms: _415  and  _417
REMARK  177  A    between atoms: _417  and  _418
REMARK  178  A    between atoms: _417  and  _420
REMARK  179  A    between atoms: _420  and  _421
REMARK  180  A    between atoms: _421  and  _422
REMARK  181  A    between atoms: _425  and  _427
REMARK  182  A    between atoms: _427  and  _428
REMARK  183  A    between atoms: _430  and  _432
REMARK  184  A    between atoms: _432  and  _433
REMARK  185  A    between atoms: _432  and  _435
REMARK  186  A    between atoms: _435  and  _436
REMARK  187  A    between atoms: _437  and  _439
REMARK  188  A    between atoms: _439  and  _440
REMARK  189  A    between atoms: _443  and  _445
REMARK  190  A    between atoms: _445  and  _446
REMARK  191  A    between atoms: _445  and  _448
REMARK  192  A    between atoms: _448  and  _449
REMARK  193  A    between atoms: _449  and  _450
REMARK  194  A    between atoms: _450  and  _451
REMARK  195  A    between atoms: _460  and  _462
REMARK  196  A    between atoms: _462  and  _463
REMARK  197  A    between atoms: _462  and  _465
REMARK  198  A    between atoms: _465  and  _466
REMARK  199  A    between atoms: _466  and  _467
REMARK  200  A    between atoms: _467  and  _468
REMARK  201  A    between atoms: _468  and  _469
REMARK  202  A    between atoms: _473  and  _475
REMARK  203  A    between atoms: _475  and  _476
REMARK  204  A    between atoms: _475  and  _478
REMARK  205  A    between atoms: _478  and  _479
REMARK  206  A    between atoms: _484  and  _485
REMARK  207  A    between atoms: _487  and  _489
REMARK  208  A    between atoms: _489  and  _490
REMARK  209  A    between atoms: _492  and  _494
REMARK  210  A    between atoms: _494  and  _495
REMARK  211  A    between atoms: _494  and  _497
REMARK  212  A    between atoms: _497  and  _498
REMARK  213  A    between atoms: _501  and  _503
REMARK  214  A    between atoms: _503  and  _504
REMARK  215  A    between atoms: _503  and  _506
REMARK  216  A    between atoms: _506  and  _507
REMARK  217  A    between atoms: _512  and  _513
REMARK  218  A    between atoms: _515  and  _517
REMARK  219  A    between atoms: _517  and  _518
REMARK  220  A    between atoms: _517  and  _520
REMARK  221  A    between atoms: _520  and  _521
REMARK                            x       y       z     vdW  Elec       q    Type
REMARK                         _______ _______ _______ _____ _____    ______ ____
ROOT
ATOM      1  O   HOH     1      21.124  11.064  35.853  0.00  0.00    +0.000 OA
ENDROOT
TORSDOF 0
REMARK  Name = ../refined-set-2016/2vwm/2vwm_pocket.pdb
REMARK  221 active torsions:
REMARK  status: ('A' for Active; 'I' for Inactive)
REMARK    1  A    between atoms: _1  and  _5
REMARK    2  A    between atoms: _5  and  _6
REMARK    3  A    between atoms: _5  and  _8
REMARK    4  A    between atoms: _8  and  _9
REMARK    5  A    between atoms: _12  and  _14
REMARK    6  A    between atoms: _14  and  _15
REMARK    7  A    between atoms: _14  and  _17
REMARK    8  A    between atoms: _20  and  _22
REMARK    9  A    between atoms: _22  and  _23
REMARK   10  A    between atoms: _22  and  _25
REMARK   11  A    between atoms: _25  and  _26
REMARK   12  A    between atoms: _31  and  _33
REMARK   13  A    between atoms: _33  and  _34
REMARK   14  A    between atoms: _33  and  _36
REMARK   15  A    between atoms: _36  and  _37
REMARK   16  A    between atoms: _37  and  _38
REMARK   17  A    between atoms: _43  and  _45
REMARK   18  A    between atoms: _45  and  _46
REMARK   19  A    between atoms: _45  and  _48
REMARK   20  A    between atoms: _48  and  _49
REMARK   21  A    between atoms: _52  and  _54
REMARK   22  A    between atoms: _54  and  _55
REMARK   23  A    between atoms: _54  and  _57
REMARK   24  A    between atoms: _57  and  _58
REMARK   25  A    between atoms: _58  and  _59
REMARK   26  A    between atoms: _59  and  _60
REMARK   27  A    between atoms: _60  and  _61
REMARK   28  A    between atoms: _65  and  _67
REMARK   29  A    between atoms: _67  and  _68
REMARK   30  A    between atoms: _67  and  _70
REMARK   31  A    between atoms: _70  and  _71
REMARK   32  A    between atoms: _71  and  _72
REMARK   33  A    between atoms: _75  and  _77
REMARK   34  A    between atoms: _77  and  _78
REMARK   35  A    between atoms: _77  and  _80
REMARK   36  A    between atoms: _80  and  _81
REMARK   37  A    between atoms: _84  and  _86
REMARK   38  A    between atoms: _86  and  _87
REMARK   39  A    between atoms: _86  and  _89
REMARK   40  A    between atoms: _89  and  _90
REMARK   41  A    between atoms: _95  and  _96
REMARK   42  A    between atoms: _98  and  _100
REMARK   43  A    between atoms: _100  and  _101
REMARK   44  A    between atoms: _100  and  _103
REMARK   45  A    between atoms: _103  and  _104
REMARK   46  A    between atoms: _107  and  _109
REMARK   47  A    between atoms: _109  and  _110
REMARK   48  A    between atoms: _109  and  _112
REMARK   49  A    between atoms: _112  and  _113
REMARK   50  A    between atoms: _116  and  _118
REMARK   51  A    between atoms: _118  and  _119
REMARK   52  A    between atoms: _118  and  _121
REMARK   53  A    between atoms: _124  and  _126
REMARK   54  A    between atoms: _126  and  _127
REMARK   55  A    between atoms: _126  and  _129
REMARK   56  A    between atoms: _129  and  _130
REMARK   57  A    between atoms: _130  and  _131
REMARK   58  A    between atoms: _131  and  _132
REMARK   59  A    between atoms: _141  and  _143
REMARK   60  A    between atoms: _143  and  _144
REMARK   61  A    between atoms: _143  and  _146
REMARK   62  A    between atoms: _146  and  _147
REMARK   63  A    between atoms: _152  and  _154
REMARK   64  A    between atoms: _154  and  _155
REMARK   65  A    between atoms: _154  and  _157
REMARK   66  A    between atoms: _157  and  _158
REMARK   67  A    between atoms: _158  and  _159
REMARK   68  A    between atoms: _162  and  _164
REMARK   69  A    between atoms: _164  and  _165
REMARK   70  A    between atoms: _164  and  _167
REMARK   71  A    between atoms: _167  and  _168
REMARK   72  A    between atoms: _168  and  _169
REMARK   73  A    between atoms: _169  and  _170
REMARK   74  A    between atoms: _170  and  _171
REMARK   75  A    between atoms: _175  and  _177
REMARK   76  A    between atoms: _177  and  _178
REMARK   77  A    between atoms: _180  and  _182
REMARK   78  A    between atoms: _182  and  _183
REMARK   79  A    between atoms: _182  and  _185
REMARK   80  A    between atoms: _188  and  _190
REMARK   81  A    between atoms: _190  and  _191
REMARK   82  A    between atoms: _190  and  _193
REMARK   83  A    between atoms: _193  and  _194
REMARK   84  A    between atoms: _196  and  _198
REMARK   85  A    between atoms: _198  and  _199
REMARK   86  A    between atoms: _198  and  _201
REMARK   87  A    between atoms: _201  and  _202
REMARK   88  A    between atoms: _204  and  _206
REMARK   89  A    between atoms: _206  and  _207
REMARK   90  A    between atoms: _206  and  _209
REMARK   91  A    between atoms: _209  and  _210
REMARK   92  A    between atoms: _216  and  _218
REMARK   93  A    between atoms: _218  and  _219
REMARK   94  A    between atoms: _218  and  _221
REMARK   95  A    between atoms: _221  and  _222
REMARK   96  A    between atoms: _225  and  _227
REMARK   97  A    between atoms: _227  and  _228
REMARK   98  A    between atoms: _227  and  _230
REMARK   99  A    between atoms: _230  and  _231
REMARK  100  A    between atoms: _234  and  _236
REMARK  101  A    between atoms: _236  and  _237
REMARK  102  A    between atoms: _236  and  _239
REMARK  103  A    between atoms: _239  and  _240
REMARK  104  A    between atoms: _243  and  _245
REMARK  105  A    between atoms: _245  and  _246
REMARK  106  A    between atoms: _245  and  _248
REMARK  107  A    between atoms: _248  and  _249
REMARK  108  A    between atoms: _249  and  _250
REMARK  109  A    between atoms: _252  and  _254
REMARK  110  A    between atoms: _254  and  _255
REMARK  111  A    between atoms: _254  and  _257
REMARK  112  A    between atoms: _257  and  _258
REMARK  113  A    between atoms: _264  and  _266
REMARK  114  A    between atoms: _266  and  _267
REMARK  115  A    between atoms: _266  and  _269
REMARK  116  A    between atoms: _271  and  _273
REMARK  117  A    between atoms: _273  and  _274
REMARK  118  A    between atoms: _277  and  _279
REMARK  119  A    between atoms: _279  and  _280
REMARK  120  A    between atoms: _282  and  _284
REMARK  121  A    between atoms: _284  and  _285
REMARK  122  A    between atoms: _284  and  _287
REMARK  123  A    between atoms: _287  and  _288
REMARK  124  A    between atoms: _288  and  _289
REMARK  125  A    between atoms: _292  and  _294
REMARK  126  A    between atoms: _294  and  _295
REMARK  127  A    between atoms: _294  and  _297
REMARK  128  A    between atoms: _297  and  _298
REMARK  129  A    between atoms: _301  and  _303
REMARK  130  A    between atoms: _303  and  _304
REMARK  131  A    between atoms: _307  and  _309
REMARK  132  A    between atoms: _309  and  _310
REMARK  133  A    between atoms: _309  and  _312
REMARK  134  A    between atoms: _312  and  _313
REMARK  135  A    between atoms: _313  and  _436
REMARK  136  A    between atoms: _314  and  _316
REMARK  137  A    between atoms: _316  and  _317
REMARK  138  A    between atoms: _316  and  _319
REMARK  139  A    between atoms: _319  and  _320
REMARK  140  A    between atoms: _320  and  _321
REMARK  141  A    between atoms: _326  and  _328
REMARK  142  A    between atoms: _328  and  _329
REMARK  143  A    between atoms: _331  and  _333
REMARK  144  A    between atoms: _333  and  _334
REMARK  145  A    between atoms: _333  and  _336
REMARK  146  A    between atoms: _336  and  _337
REMARK  147  A    between atoms: _340  and  _342
REMARK  148  A    between atoms: _342  and  _343
REMARK  149  A    between atoms: _342  and  _345
REMARK  150  A    between atoms: _345  and  _346
REMARK  151  A    between atoms: _348  and  _350
REMARK  152  A    between atoms: _350  and  _351
REMARK  153  A    between atoms: _353  and  _355
REMARK  154  A    between atoms: _355  and  _356
REMARK  155  A    between atoms: _358  and  _360
REMARK  156  A    between atoms: _360  and  _361
REMARK  157  A    between atoms: _360  and  _363
REMARK  158  A    between atoms: _363  and  _364
REMARK  159  A    between atoms: _369  and  _371
REMARK  160  A    between atoms: _371  and  _372
REMARK  161  A    between atoms: _371  and  _374
REMARK  162  A    between atoms: _374  and  _375
REMARK  163  A    between atoms: _378  and  _380
REMARK  164  A    between atoms: _380  and  _381
REMARK  165  A    between atoms: _380  and  _383
REMARK  166  A    between atoms: _386  and  _388
REMARK  167  A    between atoms: _388  and  _389
REMARK  168  A    between atoms: _388  and  _391
REMARK  169  A    between atoms: _391  and  _392
REMARK  170  A    between atoms: _394  and  _396
REMARK  171  A    between atoms: _396  and  _397
REMARK  172  A    between atoms: _396  and  _399
REMARK  173  A    between atoms: _399  and  _400
REMARK  174  A    between atoms: _410  and  _412
REMARK  175  A    between atoms: _412  and  _413
REMARK  176  A    between atoms: _415  and  _417
REMARK  177  A    between atoms: _417  and  _418
REMARK  178  A    between atoms: _417  and  _420
REMARK  179  A    between atoms: _420  and  _421
REMARK  180  A    between atoms: _421  and  _422
REMARK  181  A    between atoms: _425  and  _427
REMARK  182  A    between atoms: _427  and  _428
REMARK  183  A    between atoms: _430  and  _432
REMARK  184  A    between atoms: _432  and  _433
REMARK  185  A    between atoms: _432  and  _435
REMARK  186  A    between atoms: _435  and  _436
REMARK  187  A    between atoms: _437  and  _439
REMARK  188  A    between atoms: _439  and  _440
REMARK  189  A    between atoms: _443  and  _445
REMARK  190  A    between atoms: _445  and  _446
REMARK  191  A    between atoms: _445  and  _448
REMARK  192  A    between atoms: _448  and  _449
REMARK  193  A    between atoms: _449  and  _450
REMARK  194  A    between atoms: _450  and  _451
REMARK  195  A    between atoms: _460  and  _462
REMARK  196  A    between atoms: _462  and  _463
REMARK  197  A    between atoms: _462  and  _465
REMARK  198  A    between atoms: _465  and  _466
REMARK  199  A    between atoms: _466  and  _467
REMARK  200  A    between atoms: _467  and  _468
REMARK  201  A    between atoms: _468  and  _469
REMARK  202  A    between atoms: _473  and  _475
REMARK  203  A    between atoms: _475  and  _476
REMARK  204  A    between atoms: _475  and  _478
REMARK  205  A    between atoms: _478  and  _479
REMARK  206  A    between atoms: _484  and  _485
REMARK  207  A    between atoms: _487  and  _489
REMARK  208  A    between atoms: _489  and  _490
REMARK  209  A    between atoms: _492  and  _494
REMARK  210  A    between atoms: _494  and  _495
REMARK  211  A    between atoms: _494  and  _497
REMARK  212  A    between atoms: _497  and  _498
REMARK  213  A    between atoms: _501  and  _503
REMARK  214  A    between atoms: _503  and  _504
REMARK  215  A    between atoms: _503  and  _506
REMARK  216  A    between atoms: _506  and  _507
REMARK  217  A    between atoms: _512  and  _513
REMARK  218  A    between atoms: _515  and  _517
REMARK  219  A    between atoms: _517  and  _518
REMARK  220  A    between atoms: _517  and  _520
REMARK  221  A    between atoms: _520  and  _521
REMARK                            x       y       z     vdW  Elec       q    Type
REMARK                         _______ _______ _______ _____ _____    ______ ____
ROOT
ATOM      1  O   HOH     1      15.206  -6.710  32.393  0.00  0.00    +0.000 OA
ENDROOT
TORSDOF 0
REMARK  Name = ../refined-set-2016/2vwm/2vwm_pocket.pdb
REMARK  221 active torsions:
REMARK  status: ('A' for Active; 'I' for Inactive)
REMARK    1  A    between atoms: _1  and  _5
REMARK    2  A    between atoms: _5  and  _6
REMARK    3  A    between atoms: _5  and  _8
REMARK    4  A    between atoms: _8  and  _9
REMARK    5  A    between atoms: _12  and  _14
REMARK    6  A    between atoms: _14  and  _15
REMARK    7  A    between atoms: _14  and  _17
REMARK    8  A    between atoms: _20  and  _22
REMARK    9  A    between atoms: _22  and  _23
REMARK   10  A    between atoms: _22  and  _25
REMARK   11  A    between atoms: _25  and  _26
REMARK   12  A    between atoms: _31  and  _33
REMARK   13  A    between atoms: _33  and  _34
REMARK   14  A    between atoms: _33  and  _36
REMARK   15  A    between atoms: _36  and  _37
REMARK   16  A    between atoms: _37  and  _38
REMARK   17  A    between atoms: _43  and  _45
REMARK   18  A    between atoms: _45  and  _46
REMARK   19  A    between atoms: _45  and  _48
REMARK   20  A    between atoms: _48  and  _49
REMARK   21  A    between atoms: _52  and  _54
REMARK   22  A    between atoms: _54  and  _55
REMARK   23  A    between atoms: _54  and  _57
REMARK   24  A    between atoms: _57  and  _58
REMARK   25  A    between atoms: _58  and  _59
REMARK   26  A    between atoms: _59  and  _60
REMARK   27  A    between atoms: _60  and  _61
REMARK   28  A    between atoms: _65  and  _67
REMARK   29  A    between atoms: _67  and  _68
REMARK   30  A    between atoms: _67  and  _70
REMARK   31  A    between atoms: _70  and  _71
REMARK   32  A    between atoms: _71  and  _72
REMARK   33  A    between atoms: _75  and  _77
REMARK   34  A    between atoms: _77  and  _78
REMARK   35  A    between atoms: _77  and  _80
REMARK   36  A    between atoms: _80  and  _81
REMARK   37  A    between atoms: _84  and  _86
REMARK   38  A    between atoms: _86  and  _87
REMARK   39  A    between atoms: _86  and  _89
REMARK   40  A    between atoms: _89  and  _90
REMARK   41  A    between atoms: _95  and  _96
REMARK   42  A    between atoms: _98  and  _100
REMARK   43  A    between atoms: _100  and  _101
REMARK   44  A    between atoms: _100  and  _103
REMARK   45  A    between atoms: _103  and  _104
REMARK   46  A    between atoms: _107  and  _109
REMARK   47  A    between atoms: _109  and  _110
REMARK   48  A    between atoms: _109  and  _112
REMARK   49  A    between atoms: _112  and  _113
REMARK   50  A    between atoms: _116  and  _118
REMARK   51  A    between atoms: _118  and  _119
REMARK   52  A    between atoms: _118  and  _121
REMARK   53  A    between atoms: _124  and  _126
REMARK   54  A    between atoms: _126  and  _127
REMARK   55  A    between atoms: _126  and  _129
REMARK   56  A    between atoms: _129  and  _130
REMARK   57  A    between atoms: _130  and  _131
REMARK   58  A    between atoms: _131  and  _132
REMARK   59  A    between atoms: _141  and  _143
REMARK   60  A    between atoms: _143  and  _144
REMARK   61  A    between atoms: _143  and  _146
REMARK   62  A    between atoms: _146  and  _147
REMARK   63  A    between atoms: _152  and  _154
REMARK   64  A    between atoms: _154  and  _155
REMARK   65  A    between atoms: _154  and  _157
REMARK   66  A    between atoms: _157  and  _158
REMARK   67  A    between atoms: _158  and  _159
REMARK   68  A    between atoms: _162  and  _164
REMARK   69  A    between atoms: _164  and  _165
REMARK   70  A    between atoms: _164  and  _167
REMARK   71  A    between atoms: _167  and  _168
REMARK   72  A    between atoms: _168  and  _169
REMARK   73  A    between atoms: _169  and  _170
REMARK   74  A    between atoms: _170  and  _171
REMARK   75  A    between atoms: _175  and  _177
REMARK   76  A    between atoms: _177  and  _178
REMARK   77  A    between atoms: _180  and  _182
REMARK   78  A    between atoms: _182  and  _183
REMARK   79  A    between atoms: _182  and  _185
REMARK   80  A    between atoms: _188  and  _190
REMARK   81  A    between atoms: _190  and  _191
REMARK   82  A    between atoms: _190  and  _193
REMARK   83  A    between atoms: _193  and  _194
REMARK   84  A    between atoms: _196  and  _198
REMARK   85  A    between atoms: _198  and  _199
REMARK   86  A    between atoms: _198  and  _201
REMARK   87  A    between atoms: _201  and  _202
REMARK   88  A    between atoms: _204  and  _206
REMARK   89  A    between atoms: _206  and  _207
REMARK   90  A    between atoms: _206  and  _209
REMARK   91  A    between atoms: _209  and  _210
REMARK   92  A    between atoms: _216  and  _218
REMARK   93  A    between atoms: _218  and  _219
REMARK   94  A    between atoms: _218  and  _221
REMARK   95  A    between atoms: _221  and  _222
REMARK   96  A    between atoms: _225  and  _227
REMARK   97  A    between atoms: _227  and  _228
REMARK   98  A    between atoms: _227  and  _230
REMARK   99  A    between atoms: _230  and  _231
REMARK  100  A    between atoms: _234  and  _236
REMARK  101  A    between atoms: _236  and  _237
REMARK  102  A    between atoms: _236  and  _239
REMARK  103  A    between atoms: _239  and  _240
REMARK  104  A    between atoms: _243  and  _245
REMARK  105  A    between atoms: _245  and  _246
REMARK  106  A    between atoms: _245  and  _248
REMARK  107  A    between atoms: _248  and  _249
REMARK  108  A    between atoms: _249  and  _250
REMARK  109  A    between atoms: _252  and  _254
REMARK  110  A    between atoms: _254  and  _255
REMARK  111  A    between atoms: _254  and  _257
REMARK  112  A    between atoms: _257  and  _258
REMARK  113  A    between atoms: _264  and  _266
REMARK  114  A    between atoms: _266  and  _267
REMARK  115  A    between atoms: _266  and  _269
REMARK  116  A    between atoms: _271  and  _273
REMARK  117  A    between atoms: _273  and  _274
REMARK  118  A    between atoms: _277  and  _279
REMARK  119  A    between atoms: _279  and  _280
REMARK  120  A    between atoms: _282  and  _284
REMARK  121  A    between atoms: _284  and  _285
REMARK  122  A    between atoms: _284  and  _287
REMARK  123  A    between atoms: _287  and  _288
REMARK  124  A    between atoms: _288  and  _289
REMARK  125  A    between atoms: _292  and  _294
REMARK  126  A    between atoms: _294  and  _295
REMARK  127  A    between atoms: _294  and  _297
REMARK  128  A    between atoms: _297  and  _298
REMARK  129  A    between atoms: _301  and  _303
REMARK  130  A    between atoms: _303  and  _304
REMARK  131  A    between atoms: _307  and  _309
REMARK  132  A    between atoms: _309  and  _310
REMARK  133  A    between atoms: _309  and  _312
REMARK  134  A    between atoms: _312  and  _313
REMARK  135  A    between atoms: _313  and  _436
REMARK  136  A    between atoms: _314  and  _316
REMARK  137  A    between atoms: _316  and  _317
REMARK  138  A    between atoms: _316  and  _319
REMARK  139  A    between atoms: _319  and  _320
REMARK  140  A    between atoms: _320  and  _321
REMARK  141  A    between atoms: _326  and  _328
REMARK  142  A    between atoms: _328  and  _329
REMARK  143  A    between atoms: _331  and  _333
REMARK  144  A    between atoms: _333  and  _334
REMARK  145  A    between atoms: _333  and  _336
REMARK  146  A    between atoms: _336  and  _337
REMARK  147  A    between atoms: _340  and  _342
REMARK  148  A    between atoms: _342  and  _343
REMARK  149  A    between atoms: _342  and  _345
REMARK  150  A    between atoms: _345  and  _346
REMARK  151  A    between atoms: _348  and  _350
REMARK  152  A    between atoms: _350  and  _351
REMARK  153  A    between atoms: _353  and  _355
REMARK  154  A    between atoms: _355  and  _356
REMARK  155  A    between atoms: _358  and  _360
REMARK  156  A    between atoms: _360  and  _361
REMARK  157  A    between atoms: _360  and  _363
REMARK  158  A    between atoms: _363  and  _364
REMARK  159  A    between atoms: _369  and  _371
REMARK  160  A    between atoms: _371  and  _372
REMARK  161  A    between atoms: _371  and  _374
REMARK  162  A    between atoms: _374  and  _375
REMARK  163  A    between atoms: _378  and  _380
REMARK  164  A    between atoms: _380  and  _381
REMARK  165  A    between atoms: _380  and  _383
REMARK  166  A    between atoms: _386  and  _388
REMARK  167  A    between atoms: _388  and  _389
REMARK  168  A    between atoms: _388  and  _391
REMARK  169  A    between atoms: _391  and  _392
REMARK  170  A    between atoms: _394  and  _396
REMARK  171  A    between atoms: _396  and  _397
REMARK  172  A    between atoms: _396  and  _399
REMARK  173  A    between atoms: _399  and  _400
REMARK  174  A    between atoms: _410  and  _412
REMARK  175  A    between atoms: _412  and  _413
REMARK  176  A    between atoms: _415  and  _417
REMARK  177  A    between atoms: _417  and  _418
REMARK  178  A    between atoms: _417  and  _420
REMARK  179  A    between atoms: _420  and  _421
REMARK  180  A    between atoms: _421  and  _422
REMARK  181  A    between atoms: _425  and  _427
REMARK  182  A    between atoms: _427  and  _428
REMARK  183  A    between atoms: _430  and  _432
REMARK  184  A    between atoms: _432  and  _433
REMARK  185  A    between atoms: _432  and  _435
REMARK  186  A    between atoms: _435  and  _436
REMARK  187  A    between atoms: _437  and  _439
REMARK  188  A    between atoms: _439  and  _440
REMARK  189  A    between atoms: _443  and  _445
REMARK  190  A    between atoms: _445  and  _446
REMARK  191  A    between atoms: _445  and  _448
REMARK  192  A    between atoms: _448  and  _449
REMARK  193  A    between atoms: _449  and  _450
REMARK  194  A    between atoms: _450  and  _451
REMARK  195  A    between atoms: _460  and  _462
REMARK  196  A    between atoms: _462  and  _463
REMARK  197  A    between atoms: _462  and  _465
REMARK  198  A    between atoms: _465  and  _466
REMARK  199  A    between atoms: _466  and  _467
REMARK  200  A    between atoms: _467  and  _468
REMARK  201  A    between atoms: _468  and  _469
REMARK  202  A    between atoms: _473  and  _475
REMARK  203  A    between atoms: _475  and  _476
REMARK  204  A    between atoms: _475  and  _478
REMARK  205  A    between atoms: _478  and  _479
REMARK  206  A    between atoms: _484  and  _485
REMARK  207  A    between atoms: _487  and  _489
REMARK  208  A    between atoms: _489  and  _490
REMARK  209  A    between atoms: _492  and  _494
REMARK  210  A    between atoms: _494  and  _495
REMARK  211  A    between atoms: _494  and  _497
REMARK  212  A    between atoms: _497  and  _498
REMARK  213  A    between atoms: _501  and  _503
REMARK  214  A    between atoms: _503  and  _504
REMARK  215  A    between atoms: _503  and  _506
REMARK  216  A    between atoms: _506  and  _507
REMARK  217  A    between atoms: _512  and  _513
REMARK  218  A    between atoms: _515  and  _517
REMARK  219  A    between atoms: _517  and  _518
REMARK  220  A    between atoms: _517  and  _520
REMARK  221  A    between atoms: _520  and  _521
REMARK                            x       y       z     vdW  Elec       q    Type
REMARK                         _______ _______ _______ _____ _____    ______ ____
ROOT
ATOM      1  O   HOH     1      11.916  -4.643  33.205  0.00  0.00    +0.000 OA
ENDROOT
TORSDOF 0
REMARK  Name = ../refined-set-2016/2vwm/2vwm_pocket.pdb
REMARK  221 active torsions:
REMARK  status: ('A' for Active; 'I' for Inactive)
REMARK    1  A    between atoms: _1  and  _5
REMARK    2  A    between atoms: _5  and  _6
REMARK    3  A    between atoms: _5  and  _8
REMARK    4  A    between atoms: _8  and  _9
REMARK    5  A    between atoms: _12  and  _14
REMARK    6  A    between atoms: _14  and  _15
REMARK    7  A    between atoms: _14  and  _17
REMARK    8  A    between atoms: _20  and  _22
REMARK    9  A    between atoms: _22  and  _23
REMARK   10  A    between atoms: _22  and  _25
REMARK   11  A    between atoms: _25  and  _26
REMARK   12  A    between atoms: _31  and  _33
REMARK   13  A    between atoms: _33  and  _34
REMARK   14  A    between atoms: _33  and  _36
REMARK   15  A    between atoms: _36  and  _37
REMARK   16  A    between atoms: _37  and  _38
REMARK   17  A    between atoms: _43  and  _45
REMARK   18  A    between atoms: _45  and  _46
REMARK   19  A    between atoms: _45  and  _48
REMARK   20  A    between atoms: _48  and  _49
REMARK   21  A    between atoms: _52  and  _54
REMARK   22  A    between atoms: _54  and  _55
REMARK   23  A    between atoms: _54  and  _57
REMARK   24  A    between atoms: _57  and  _58
REMARK   25  A    between atoms: _58  and  _59
REMARK   26  A    between atoms: _59  and  _60
REMARK   27  A    between atoms: _60  and  _61
REMARK   28  A    between atoms: _65  and  _67
REMARK   29  A    between atoms: _67  and  _68
REMARK   30  A    between atoms: _67  and  _70
REMARK   31  A    between atoms: _70  and  _71
REMARK   32  A    between atoms: _71  and  _72
REMARK   33  A    between atoms: _75  and  _77
REMARK   34  A    between atoms: _77  and  _78
REMARK   35  A    between atoms: _77  and  _80
REMARK   36  A    between atoms: _80  and  _81
REMARK   37  A    between atoms: _84  and  _86
REMARK   38  A    between atoms: _86  and  _87
REMARK   39  A    between atoms: _86  and  _89
REMARK   40  A    between atoms: _89  and  _90
REMARK   41  A    between atoms: _95  and  _96
REMARK   42  A    between atoms: _98  and  _100
REMARK   43  A    between atoms: _100  and  _101
REMARK   44  A    between atoms: _100  and  _103
REMARK   45  A    between atoms: _103  and  _104
REMARK   46  A    between atoms: _107  and  _109
REMARK   47  A    between atoms: _109  and  _110
REMARK   48  A    between atoms: _109  and  _112
REMARK   49  A    between atoms: _112  and  _113
REMARK   50  A    between atoms: _116  and  _118
REMARK   51  A    between atoms: _118  and  _119
REMARK   52  A    between atoms: _118  and  _121
REMARK   53  A    between atoms: _124  and  _126
REMARK   54  A    between atoms: _126  and  _127
REMARK   55  A    between atoms: _126  and  _129
REMARK   56  A    between atoms: _129  and  _130
REMARK   57  A    between atoms: _130  and  _131
REMARK   58  A    between atoms: _131  and  _132
REMARK   59  A    between atoms: _141  and  _143
REMARK   60  A    between atoms: _143  and  _144
REMARK   61  A    between atoms: _143  and  _146
REMARK   62  A    between atoms: _146  and  _147
REMARK   63  A    between atoms: _152  and  _154
REMARK   64  A    between atoms: _154  and  _155
REMARK   65  A    between atoms: _154  and  _157
REMARK   66  A    between atoms: _157  and  _158
REMARK   67  A    between atoms: _158  and  _159
REMARK   68  A    between atoms: _162  and  _164
REMARK   69  A    between atoms: _164  and  _165
REMARK   70  A    between atoms: _164  and  _167
REMARK   71  A    between atoms: _167  and  _168
REMARK   72  A    between atoms: _168  and  _169
REMARK   73  A    between atoms: _169  and  _170
REMARK   74  A    between atoms: _170  and  _171
REMARK   75  A    between atoms: _175  and  _177
REMARK   76  A    between atoms: _177  and  _178
REMARK   77  A    between atoms: _180  and  _182
REMARK   78  A    between atoms: _182  and  _183
REMARK   79  A    between atoms: _182  and  _185
REMARK   80  A    between atoms: _188  and  _190
REMARK   81  A    between atoms: _190  and  _191
REMARK   82  A    between atoms: _190  and  _193
REMARK   83  A    between atoms: _193  and  _194
REMARK   84  A    between atoms: _196  and  _198
REMARK   85  A    between atoms: _198  and  _199
REMARK   86  A    between atoms: _198  and  _201
REMARK   87  A    between atoms: _201  and  _202
REMARK   88  A    between atoms: _204  and  _206
REMARK   89  A    between atoms: _206  and  _207
REMARK   90  A    between atoms: _206  and  _209
REMARK   91  A    between atoms: _209  and  _210
REMARK   92  A    between atoms: _216  and  _218
REMARK   93  A    between atoms: _218  and  _219
REMARK   94  A    between atoms: _218  and  _221
REMARK   95  A    between atoms: _221  and  _222
REMARK   96  A    between atoms: _225  and  _227
REMARK   97  A    between atoms: _227  and  _228
REMARK   98  A    between atoms: _227  and  _230
REMARK   99  A    between atoms: _230  and  _231
REMARK  100  A    between atoms: _234  and  _236
REMARK  101  A    between atoms: _236  and  _237
REMARK  102  A    between atoms: _236  and  _239
REMARK  103  A    between atoms: _239  and  _240
REMARK  104  A    between atoms: _243  and  _245
REMARK  105  A    between atoms: _245  and  _246
REMARK  106  A    between atoms: _245  and  _248
REMARK  107  A    between atoms: _248  and  _249
REMARK  108  A    between atoms: _249  and  _250
REMARK  109  A    between atoms: _252  and  _254
REMARK  110  A    between atoms: _254  and  _255
REMARK  111  A    between atoms: _254  and  _257
REMARK  112  A    between atoms: _257  and  _258
REMARK  113  A    between atoms: _264  and  _266
REMARK  114  A    between atoms: _266  and  _267
REMARK  115  A    between atoms: _266  and  _269
REMARK  116  A    between atoms: _271  and  _273
REMARK  117  A    between atoms: _273  and  _274
REMARK  118  A    between atoms: _277  and  _279
REMARK  119  A    between atoms: _279  and  _280
REMARK  120  A    between atoms: _282  and  _284
REMARK  121  A    between atoms: _284  and  _285
REMARK  122  A    between atoms: _284  and  _287
REMARK  123  A    between atoms: _287  and  _288
REMARK  124  A    between atoms: _288  and  _289
REMARK  125  A    between atoms: _292  and  _294
REMARK  126  A    between atoms: _294  and  _295
REMARK  127  A    between atoms: _294  and  _297
REMARK  128  A    between atoms: _297  and  _298
REMARK  129  A    between atoms: _301  and  _303
REMARK  130  A    between atoms: _303  and  _304
REMARK  131  A    between atoms: _307  and  _309
REMARK  132  A    between atoms: _309  and  _310
REMARK  133  A    between atoms: _309  and  _312
REMARK  134  A    between atoms: _312  and  _313
REMARK  135  A    between atoms: _313  and  _436
REMARK  136  A    between atoms: _314  and  _316
REMARK  137  A    between atoms: _316  and  _317
REMARK  138  A    between atoms: _316  and  _319
REMARK  139  A    between atoms: _319  and  _320
REMARK  140  A    between atoms: _320  and  _321
REMARK  141  A    between atoms: _326  and  _328
REMARK  142  A    between atoms: _328  and  _329
REMARK  143  A    between atoms: _331  and  _333
REMARK  144  A    between atoms: _333  and  _334
REMARK  145  A    between atoms: _333  and  _336
REMARK  146  A    between atoms: _336  and  _337
REMARK  147  A    between atoms: _340  and  _342
REMARK  148  A    between atoms: _342  and  _343
REMARK  149  A    between atoms: _342  and  _345
REMARK  150  A    between atoms: _345  and  _346
REMARK  151  A    between atoms: _348  and  _350
REMARK  152  A    between atoms: _350  and  _351
REMARK  153  A    between atoms: _353  and  _355
REMARK  154  A    between atoms: _355  and  _356
REMARK  155  A    between atoms: _358  and  _360
REMARK  156  A    between atoms: _360  and  _361
REMARK  157  A    between atoms: _360  and  _363
REMARK  158  A    between atoms: _363  and  _364
REMARK  159  A    between atoms: _369  and  _371
REMARK  160  A    between atoms: _371  and  _372
REMARK  161  A    between atoms: _371  and  _374
REMARK  162  A    between atoms: _374  and  _375
REMARK  163  A    between atoms: _378  and  _380
REMARK  164  A    between atoms: _380  and  _381
REMARK  165  A    between atoms: _380  and  _383
REMARK  166  A    between atoms: _386  and  _388
REMARK  167  A    between atoms: _388  and  _389
REMARK  168  A    between atoms: _388  and  _391
REMARK  169  A    between atoms: _391  and  _392
REMARK  170  A    between atoms: _394  and  _396
REMARK  171  A    between atoms: _396  and  _397
REMARK  172  A    between atoms: _396  and  _399
REMARK  173  A    between atoms: _399  and  _400
REMARK  174  A    between atoms: _410  and  _412
REMARK  175  A    between atoms: _412  and  _413
REMARK  176  A    between atoms: _415  and  _417
REMARK  177  A    between atoms: _417  and  _418
REMARK  178  A    between atoms: _417  and  _420
REMARK  179  A    between atoms: _420  and  _421
REMARK  180  A    between atoms: _421  and  _422
REMARK  181  A    between atoms: _425  and  _427
REMARK  182  A    between atoms: _427  and  _428
REMARK  183  A    between atoms: _430  and  _432
REMARK  184  A    between atoms: _432  and  _433
REMARK  185  A    between atoms: _432  and  _435
REMARK  186  A    between atoms: _435  and  _436
REMARK  187  A    between atoms: _437  and  _439
REMARK  188  A    between atoms: _439  and  _440
REMARK  189  A    between atoms: _443  and  _445
REMARK  190  A    between atoms: _445  and  _446
REMARK  191  A    between atoms: _445  and  _448
REMARK  192  A    between atoms: _448  and  _449
REMARK  193  A    between atoms: _449  and  _450
REMARK  194  A    between atoms: _450  and  _451
REMARK  195  A    between atoms: _460  and  _462
REMARK  196  A    between atoms: _462  and  _463
REMARK  197  A    between atoms: _462  and  _465
REMARK  198  A    between atoms: _465  and  _466
REMARK  199  A    between atoms: _466  and  _467
REMARK  200  A    between atoms: _467  and  _468
REMARK  201  A    between atoms: _468  and  _469
REMARK  202  A    between atoms: _473  and  _475
REMARK  203  A    between atoms: _475  and  _476
REMARK  204  A    between atoms: _475  and  _478
REMARK  205  A    between atoms: _478  and  _479
REMARK  206  A    between atoms: _484  and  _485
REMARK  207  A    between atoms: _487  and  _489
REMARK  208  A    between atoms: _489  and  _490
REMARK  209  A    between atoms: _492  and  _494
REMARK  210  A    between atoms: _494  and  _495
REMARK  211  A    between atoms: _494  and  _497
REMARK  212  A    between atoms: _497  and  _498
REMARK  213  A    between atoms: _501  and  _503
REMARK  214  A    between atoms: _503  and  _504
REMARK  215  A    between atoms: _503  and  _506
REMARK  216  A    between atoms: _506  and  _507
REMARK  217  A    between atoms: _512  and  _513
REMARK  218  A    between atoms: _515  and  _517
REMARK  219  A    between atoms: _517  and  _518
REMARK  220  A    between atoms: _517  and  _520
REMARK  221  A    between atoms: _520  and  _521
REMARK                            x       y       z     vdW  Elec       q    Type
REMARK                         _______ _______ _______ _____ _____    ______ ____
ROOT
ATOM      1  O   HOH     1      16.342  -1.315  30.386  0.00  0.00    +0.000 OA
ENDROOT
TORSDOF 0
REMARK  Name = ../refined-set-2016/2vwm/2vwm_pocket.pdb
REMARK  221 active torsions:
REMARK  status: ('A' for Active; 'I' for Inactive)
REMARK    1  A    between atoms: _1  and  _5
REMARK    2  A    between atoms: _5  and  _6
REMARK    3  A    between atoms: _5  and  _8
REMARK    4  A    between atoms: _8  and  _9
REMARK    5  A    between atoms: _12  and  _14
REMARK    6  A    between atoms: _14  and  _15
REMARK    7  A    between atoms: _14  and  _17
REMARK    8  A    between atoms: _20  and  _22
REMARK    9  A    between atoms: _22  and  _23
REMARK   10  A    between atoms: _22  and  _25
REMARK   11  A    between atoms: _25  and  _26
REMARK   12  A    between atoms: _31  and  _33
REMARK   13  A    between atoms: _33  and  _34
REMARK   14  A    between atoms: _33  and  _36
REMARK   15  A    between atoms: _36  and  _37
REMARK   16  A    between atoms: _37  and  _38
REMARK   17  A    between atoms: _43  and  _45
REMARK   18  A    between atoms: _45  and  _46
REMARK   19  A    between atoms: _45  and  _48
REMARK   20  A    between atoms: _48  and  _49
REMARK   21  A    between atoms: _52  and  _54
REMARK   22  A    between atoms: _54  and  _55
REMARK   23  A    between atoms: _54  and  _57
REMARK   24  A    between atoms: _57  and  _58
REMARK   25  A    between atoms: _58  and  _59
REMARK   26  A    between atoms: _59  and  _60
REMARK   27  A    between atoms: _60  and  _61
REMARK   28  A    between atoms: _65  and  _67
REMARK   29  A    between atoms: _67  and  _68
REMARK   30  A    between atoms: _67  and  _70
REMARK   31  A    between atoms: _70  and  _71
REMARK   32  A    between atoms: _71  and  _72
REMARK   33  A    between atoms: _75  and  _77
REMARK   34  A    between atoms: _77  and  _78
REMARK   35  A    between atoms: _77  and  _80
REMARK   36  A    between atoms: _80  and  _81
REMARK   37  A    between atoms: _84  and  _86
REMARK   38  A    between atoms: _86  and  _87
REMARK   39  A    between atoms: _86  and  _89
REMARK   40  A    between atoms: _89  and  _90
REMARK   41  A    between atoms: _95  and  _96
REMARK   42  A    between atoms: _98  and  _100
REMARK   43  A    between atoms: _100  and  _101
REMARK   44  A    between atoms: _100  and  _103
REMARK   45  A    between atoms: _103  and  _104
REMARK   46  A    between atoms: _107  and  _109
REMARK   47  A    between atoms: _109  and  _110
REMARK   48  A    between atoms: _109  and  _112
REMARK   49  A    between atoms: _112  and  _113
REMARK   50  A    between atoms: _116  and  _118
REMARK   51  A    between atoms: _118  and  _119
REMARK   52  A    between atoms: _118  and  _121
REMARK   53  A    between atoms: _124  and  _126
REMARK   54  A    between atoms: _126  and  _127
REMARK   55  A    between atoms: _126  and  _129
REMARK   56  A    between atoms: _129  and  _130
REMARK   57  A    between atoms: _130  and  _131
REMARK   58  A    between atoms: _131  and  _132
REMARK   59  A    between atoms: _141  and  _143
REMARK   60  A    between atoms: _143  and  _144
REMARK   61  A    between atoms: _143  and  _146
REMARK   62  A    between atoms: _146  and  _147
REMARK   63  A    between atoms: _152  and  _154
REMARK   64  A    between atoms: _154  and  _155
REMARK   65  A    between atoms: _154  and  _157
REMARK   66  A    between atoms: _157  and  _158
REMARK   67  A    between atoms: _158  and  _159
REMARK   68  A    between atoms: _162  and  _164
REMARK   69  A    between atoms: _164  and  _165
REMARK   70  A    between atoms: _164  and  _167
REMARK   71  A    between atoms: _167  and  _168
REMARK   72  A    between atoms: _168  and  _169
REMARK   73  A    between atoms: _169  and  _170
REMARK   74  A    between atoms: _170  and  _171
REMARK   75  A    between atoms: _175  and  _177
REMARK   76  A    between atoms: _177  and  _178
REMARK   77  A    between atoms: _180  and  _182
REMARK   78  A    between atoms: _182  and  _183
REMARK   79  A    between atoms: _182  and  _185
REMARK   80  A    between atoms: _188  and  _190
REMARK   81  A    between atoms: _190  and  _191
REMARK   82  A    between atoms: _190  and  _193
REMARK   83  A    between atoms: _193  and  _194
REMARK   84  A    between atoms: _196  and  _198
REMARK   85  A    between atoms: _198  and  _199
REMARK   86  A    between atoms: _198  and  _201
REMARK   87  A    between atoms: _201  and  _202
REMARK   88  A    between atoms: _204  and  _206
REMARK   89  A    between atoms: _206  and  _207
REMARK   90  A    between atoms: _206  and  _209
REMARK   91  A    between atoms: _209  and  _210
REMARK   92  A    between atoms: _216  and  _218
REMARK   93  A    between atoms: _218  and  _219
REMARK   94  A    between atoms: _218  and  _221
REMARK   95  A    between atoms: _221  and  _222
REMARK   96  A    between atoms: _225  and  _227
REMARK   97  A    between atoms: _227  and  _228
REMARK   98  A    between atoms: _227  and  _230
REMARK   99  A    between atoms: _230  and  _231
REMARK  100  A    between atoms: _234  and  _236
REMARK  101  A    between atoms: _236  and  _237
REMARK  102  A    between atoms: _236  and  _239
REMARK  103  A    between atoms: _239  and  _240
REMARK  104  A    between atoms: _243  and  _245
REMARK  105  A    between atoms: _245  and  _246
REMARK  106  A    between atoms: _245  and  _248
REMARK  107  A    between atoms: _248  and  _249
REMARK  108  A    between atoms: _249  and  _250
REMARK  109  A    between atoms: _252  and  _254
REMARK  110  A    between atoms: _254  and  _255
REMARK  111  A    between atoms: _254  and  _257
REMARK  112  A    between atoms: _257  and  _258
REMARK  113  A    between atoms: _264  and  _266
REMARK  114  A    between atoms: _266  and  _267
REMARK  115  A    between atoms: _266  and  _269
REMARK  116  A    between atoms: _271  and  _273
REMARK  117  A    between atoms: _273  and  _274
REMARK  118  A    between atoms: _277  and  _279
REMARK  119  A    between atoms: _279  and  _280
REMARK  120  A    between atoms: _282  and  _284
REMARK  121  A    between atoms: _284  and  _285
REMARK  122  A    between atoms: _284  and  _287
REMARK  123  A    between atoms: _287  and  _288
REMARK  124  A    between atoms: _288  and  _289
REMARK  125  A    between atoms: _292  and  _294
REMARK  126  A    between atoms: _294  and  _295
REMARK  127  A    between atoms: _294  and  _297
REMARK  128  A    between atoms: _297  and  _298
REMARK  129  A    between atoms: _301  and  _303
REMARK  130  A    between atoms: _303  and  _304
REMARK  131  A    between atoms: _307  and  _309
REMARK  132  A    between atoms: _309  and  _310
REMARK  133  A    between atoms: _309  and  _312
REMARK  134  A    between atoms: _312  and  _313
REMARK  135  A    between atoms: _313  and  _436
REMARK  136  A    between atoms: _314  and  _316
REMARK  137  A    between atoms: _316  and  _317
REMARK  138  A    between atoms: _316  and  _319
REMARK  139  A    between atoms: _319  and  _320
REMARK  140  A    between atoms: _320  and  _321
REMARK  141  A    between atoms: _326  and  _328
REMARK  142  A    between atoms: _328  and  _329
REMARK  143  A    between atoms: _331  and  _333
REMARK  144  A    between atoms: _333  and  _334
REMARK  145  A    between atoms: _333  and  _336
REMARK  146  A    between atoms: _336  and  _337
REMARK  147  A    between atoms: _340  and  _342
REMARK  148  A    between atoms: _342  and  _343
REMARK  149  A    between atoms: _342  and  _345
REMARK  150  A    between atoms: _345  and  _346
REMARK  151  A    between atoms: _348  and  _350
REMARK  152  A    between atoms: _350  and  _351
REMARK  153  A    between atoms: _353  and  _355
REMARK  154  A    between atoms: _355  and  _356
REMARK  155  A    between atoms: _358  and  _360
REMARK  156  A    between atoms: _360  and  _361
REMARK  157  A    between atoms: _360  and  _363
REMARK  158  A    between atoms: _363  and  _364
REMARK  159  A    between atoms: _369  and  _371
REMARK  160  A    between atoms: _371  and  _372
REMARK  161  A    between atoms: _371  and  _374
REMARK  162  A    between atoms: _374  and  _375
REMARK  163  A    between atoms: _378  and  _380
REMARK  164  A    between atoms: _380  and  _381
REMARK  165  A    between atoms: _380  and  _383
REMARK  166  A    between atoms: _386  and  _388
REMARK  167  A    between atoms: _388  and  _389
REMARK  168  A    between atoms: _388  and  _391
REMARK  169  A    between atoms: _391  and  _392
REMARK  170  A    between atoms: _394  and  _396
REMARK  171  A    between atoms: _396  and  _397
REMARK  172  A    between atoms: _396  and  _399
REMARK  173  A    between atoms: _399  and  _400
REMARK  174  A    between atoms: _410  and  _412
REMARK  175  A    between atoms: _412  and  _413
REMARK  176  A    between atoms: _415  and  _417
REMARK  177  A    between atoms: _417  and  _418
REMARK  178  A    between atoms: _417  and  _420
REMARK  179  A    between atoms: _420  and  _421
REMARK  180  A    between atoms: _421  and  _422
REMARK  181  A    between atoms: _425  and  _427
REMARK  182  A    between atoms: _427  and  _428
REMARK  183  A    between atoms: _430  and  _432
REMARK  184  A    between atoms: _432  and  _433
REMARK  185  A    between atoms: _432  and  _435
REMARK  186  A    between atoms: _435  and  _436
REMARK  187  A    between atoms: _437  and  _439
REMARK  188  A    between atoms: _439  and  _440
REMARK  189  A    between atoms: _443  and  _445
REMARK  190  A    between atoms: _445  and  _446
REMARK  191  A    between atoms: _445  and  _448
REMARK  192  A    between atoms: _448  and  _449
REMARK  193  A    between atoms: _449  and  _450
REMARK  194  A    between atoms: _450  and  _451
REMARK  195  A    between atoms: _460  and  _462
REMARK  196  A    between atoms: _462  and  _463
REMARK  197  A    between atoms: _462  and  _465
REMARK  198  A    between atoms: _465  and  _466
REMARK  199  A    between atoms: _466  and  _467
REMARK  200  A    between atoms: _467  and  _468
REMARK  201  A    between atoms: _468  and  _469
REMARK  202  A    between atoms: _473  and  _475
REMARK  203  A    between atoms: _475  and  _476
REMARK  204  A    between atoms: _475  and  _478
REMARK  205  A    between atoms: _478  and  _479
REMARK  206  A    between atoms: _484  and  _485
REMARK  207  A    between atoms: _487  and  _489
REMARK  208  A    between atoms: _489  and  _490
REMARK  209  A    between atoms: _492  and  _494
REMARK  210  A    between atoms: _494  and  _495
REMARK  211  A    between atoms: _494  and  _497
REMARK  212  A    between atoms: _497  and  _498
REMARK  213  A    between atoms: _501  and  _503
REMARK  214  A    between atoms: _503  and  _504
REMARK  215  A    between atoms: _503  and  _506
REMARK  216  A    between atoms: _506  and  _507
REMARK  217  A    between atoms: _512  and  _513
REMARK  218  A    between atoms: _515  and  _517
REMARK  219  A    between atoms: _517  and  _518
REMARK  220  A    between atoms: _517  and  _520
REMARK  221  A    between atoms: _520  and  _521
REMARK                            x       y       z     vdW  Elec       q    Type
REMARK                         _______ _______ _______ _____ _____    ______ ____
ROOT
ATOM      1  O   HOH     1       9.565   3.845  25.935  0.00  0.00    +0.000 OA
ENDROOT
TORSDOF 0
REMARK  Name = ../refined-set-2016/2vwm/2vwm_pocket.pdb
REMARK  221 active torsions:
REMARK  status: ('A' for Active; 'I' for Inactive)
REMARK    1  A    between atoms: _1  and  _5
REMARK    2  A    between atoms: _5  and  _6
REMARK    3  A    between atoms: _5  and  _8
REMARK    4  A    between atoms: _8  and  _9
REMARK    5  A    between atoms: _12  and  _14
REMARK    6  A    between atoms: _14  and  _15
REMARK    7  A    between atoms: _14  and  _17
REMARK    8  A    between atoms: _20  and  _22
REMARK    9  A    between atoms: _22  and  _23
REMARK   10  A    between atoms: _22  and  _25
REMARK   11  A    between atoms: _25  and  _26
REMARK   12  A    between atoms: _31  and  _33
REMARK   13  A    between atoms: _33  and  _34
REMARK   14  A    between atoms: _33  and  _36
REMARK   15  A    between atoms: _36  and  _37
REMARK   16  A    between atoms: _37  and  _38
REMARK   17  A    between atoms: _43  and  _45
REMARK   18  A    between atoms: _45  and  _46
REMARK   19  A    between atoms: _45  and  _48
REMARK   20  A    between atoms: _48  and  _49
REMARK   21  A    between atoms: _52  and  _54
REMARK   22  A    between atoms: _54  and  _55
REMARK   23  A    between atoms: _54  and  _57
REMARK   24  A    between atoms: _57  and  _58
REMARK   25  A    between atoms: _58  and  _59
REMARK   26  A    between atoms: _59  and  _60
REMARK   27  A    between atoms: _60  and  _61
REMARK   28  A    between atoms: _65  and  _67
REMARK   29  A    between atoms: _67  and  _68
REMARK   30  A    between atoms: _67  and  _70
REMARK   31  A    between atoms: _70  and  _71
REMARK   32  A    between atoms: _71  and  _72
REMARK   33  A    between atoms: _75  and  _77
REMARK   34  A    between atoms: _77  and  _78
REMARK   35  A    between atoms: _77  and  _80
REMARK   36  A    between atoms: _80  and  _81
REMARK   37  A    between atoms: _84  and  _86
REMARK   38  A    between atoms: _86  and  _87
REMARK   39  A    between atoms: _86  and  _89
REMARK   40  A    between atoms: _89  and  _90
REMARK   41  A    between atoms: _95  and  _96
REMARK   42  A    between atoms: _98  and  _100
REMARK   43  A    between atoms: _100  and  _101
REMARK   44  A    between atoms: _100  and  _103
REMARK   45  A    between atoms: _103  and  _104
REMARK   46  A    between atoms: _107  and  _109
REMARK   47  A    between atoms: _109  and  _110
REMARK   48  A    between atoms: _109  and  _112
REMARK   49  A    between atoms: _112  and  _113
REMARK   50  A    between atoms: _116  and  _118
REMARK   51  A    between atoms: _118  and  _119
REMARK   52  A    between atoms: _118  and  _121
REMARK   53  A    between atoms: _124  and  _126
REMARK   54  A    between atoms: _126  and  _127
REMARK   55  A    between atoms: _126  and  _129
REMARK   56  A    between atoms: _129  and  _130
REMARK   57  A    between atoms: _130  and  _131
REMARK   58  A    between atoms: _131  and  _132
REMARK   59  A    between atoms: _141  and  _143
REMARK   60  A    between atoms: _143  and  _144
REMARK   61  A    between atoms: _143  and  _146
REMARK   62  A    between atoms: _146  and  _147
REMARK   63  A    between atoms: _152  and  _154
REMARK   64  A    between atoms: _154  and  _155
REMARK   65  A    between atoms: _154  and  _157
REMARK   66  A    between atoms: _157  and  _158
REMARK   67  A    between atoms: _158  and  _159
REMARK   68  A    between atoms: _162  and  _164
REMARK   69  A    between atoms: _164  and  _165
REMARK   70  A    between atoms: _164  and  _167
REMARK   71  A    between atoms: _167  and  _168
REMARK   72  A    between atoms: _168  and  _169
REMARK   73  A    between atoms: _169  and  _170
REMARK   74  A    between atoms: _170  and  _171
REMARK   75  A    between atoms: _175  and  _177
REMARK   76  A    between atoms: _177  and  _178
REMARK   77  A    between atoms: _180  and  _182
REMARK   78  A    between atoms: _182  and  _183
REMARK   79  A    between atoms: _182  and  _185
REMARK   80  A    between atoms: _188  and  _190
REMARK   81  A    between atoms: _190  and  _191
REMARK   82  A    between atoms: _190  and  _193
REMARK   83  A    between atoms: _193  and  _194
REMARK   84  A    between atoms: _196  and  _198
REMARK   85  A    between atoms: _198  and  _199
REMARK   86  A    between atoms: _198  and  _201
REMARK   87  A    between atoms: _201  and  _202
REMARK   88  A    between atoms: _204  and  _206
REMARK   89  A    between atoms: _206  and  _207
REMARK   90  A    between atoms: _206  and  _209
REMARK   91  A    between atoms: _209  and  _210
REMARK   92  A    between atoms: _216  and  _218
REMARK   93  A    between atoms: _218  and  _219
REMARK   94  A    between atoms: _218  and  _221
REMARK   95  A    between atoms: _221  and  _222
REMARK   96  A    between atoms: _225  and  _227
REMARK   97  A    between atoms: _227  and  _228
REMARK   98  A    between atoms: _227  and  _230
REMARK   99  A    between atoms: _230  and  _231
REMARK  100  A    between atoms: _234  and  _236
REMARK  101  A    between atoms: _236  and  _237
REMARK  102  A    between atoms: _236  and  _239
REMARK  103  A    between atoms: _239  and  _240
REMARK  104  A    between atoms: _243  and  _245
REMARK  105  A    between atoms: _245  and  _246
REMARK  106  A    between atoms: _245  and  _248
REMARK  107  A    between atoms: _248  and  _249
REMARK  108  A    between atoms: _249  and  _250
REMARK  109  A    between atoms: _252  and  _254
REMARK  110  A    between atoms: _254  and  _255
REMARK  111  A    between atoms: _254  and  _257
REMARK  112  A    between atoms: _257  and  _258
REMARK  113  A    between atoms: _264  and  _266
REMARK  114  A    between atoms: _266  and  _267
REMARK  115  A    between atoms: _266  and  _269
REMARK  116  A    between atoms: _271  and  _273
REMARK  117  A    between atoms: _273  and  _274
REMARK  118  A    between atoms: _277  and  _279
REMARK  119  A    between atoms: _279  and  _280
REMARK  120  A    between atoms: _282  and  _284
REMARK  121  A    between atoms: _284  and  _285
REMARK  122  A    between atoms: _284  and  _287
REMARK  123  A    between atoms: _287  and  _288
REMARK  124  A    between atoms: _288  and  _289
REMARK  125  A    between atoms: _292  and  _294
REMARK  126  A    between atoms: _294  and  _295
REMARK  127  A    between atoms: _294  and  _297
REMARK  128  A    between atoms: _297  and  _298
REMARK  129  A    between atoms: _301  and  _303
REMARK  130  A    between atoms: _303  and  _304
REMARK  131  A    between atoms: _307  and  _309
REMARK  132  A    between atoms: _309  and  _310
REMARK  133  A    between atoms: _309  and  _312
REMARK  134  A    between atoms: _312  and  _313
REMARK  135  A    between atoms: _313  and  _436
REMARK  136  A    between atoms: _314  and  _316
REMARK  137  A    between atoms: _316  and  _317
REMARK  138  A    between atoms: _316  and  _319
REMARK  139  A    between atoms: _319  and  _320
REMARK  140  A    between atoms: _320  and  _321
REMARK  141  A    between atoms: _326  and  _328
REMARK  142  A    between atoms: _328  and  _329
REMARK  143  A    between atoms: _331  and  _333
REMARK  144  A    between atoms: _333  and  _334
REMARK  145  A    between atoms: _333  and  _336
REMARK  146  A    between atoms: _336  and  _337
REMARK  147  A    between atoms: _340  and  _342
REMARK  148  A    between atoms: _342  and  _343
REMARK  149  A    between atoms: _342  and  _345
REMARK  150  A    between atoms: _345  and  _346
REMARK  151  A    between atoms: _348  and  _350
REMARK  152  A    between atoms: _350  and  _351
REMARK  153  A    between atoms: _353  and  _355
REMARK  154  A    between atoms: _355  and  _356
REMARK  155  A    between atoms: _358  and  _360
REMARK  156  A    between atoms: _360  and  _361
REMARK  157  A    between atoms: _360  and  _363
REMARK  158  A    between atoms: _363  and  _364
REMARK  159  A    between atoms: _369  and  _371
REMARK  160  A    between atoms: _371  and  _372
REMARK  161  A    between atoms: _371  and  _374
REMARK  162  A    between atoms: _374  and  _375
REMARK  163  A    between atoms: _378  and  _380
REMARK  164  A    between atoms: _380  and  _381
REMARK  165  A    between atoms: _380  and  _383
REMARK  166  A    between atoms: _386  and  _388
REMARK  167  A    between atoms: _388  and  _389
REMARK  168  A    between atoms: _388  and  _391
REMARK  169  A    between atoms: _391  and  _392
REMARK  170  A    between atoms: _394  and  _396
REMARK  171  A    between atoms: _396  and  _397
REMARK  172  A    between atoms: _396  and  _399
REMARK  173  A    between atoms: _399  and  _400
REMARK  174  A    between atoms: _410  and  _412
REMARK  175  A    between atoms: _412  and  _413
REMARK  176  A    between atoms: _415  and  _417
REMARK  177  A    between atoms: _417  and  _418
REMARK  178  A    between atoms: _417  and  _420
REMARK  179  A    between atoms: _420  and  _421
REMARK  180  A    between atoms: _421  and  _422
REMARK  181  A    between atoms: _425  and  _427
REMARK  182  A    between atoms: _427  and  _428
REMARK  183  A    between atoms: _430  and  _432
REMARK  184  A    between atoms: _432  and  _433
REMARK  185  A    between atoms: _432  and  _435
REMARK  186  A    between atoms: _435  and  _436
REMARK  187  A    between atoms: _437  and  _439
REMARK  188  A    between atoms: _439  and  _440
REMARK  189  A    between atoms: _443  and  _445
REMARK  190  A    between atoms: _445  and  _446
REMARK  191  A    between atoms: _445  and  _448
REMARK  192  A    between atoms: _448  and  _449
REMARK  193  A    between atoms: _449  and  _450
REMARK  194  A    between atoms: _450  and  _451
REMARK  195  A    between atoms: _460  and  _462
REMARK  196  A    between atoms: _462  and  _463
REMARK  197  A    between atoms: _462  and  _465
REMARK  198  A    between atoms: _465  and  _466
REMARK  199  A    between atoms: _466  and  _467
REMARK  200  A    between atoms: _467  and  _468
REMARK  201  A    between atoms: _468  and  _469
REMARK  202  A    between atoms: _473  and  _475
REMARK  203  A    between atoms: _475  and  _476
REMARK  204  A    between atoms: _475  and  _478
REMARK  205  A    between atoms: _478  and  _479
REMARK  206  A    between atoms: _484  and  _485
REMARK  207  A    between atoms: _487  and  _489
REMARK  208  A    between atoms: _489  and  _490
REMARK  209  A    between atoms: _492  and  _494
REMARK  210  A    between atoms: _494  and  _495
REMARK  211  A    between atoms: _494  and  _497
REMARK  212  A    between atoms: _497  and  _498
REMARK  213  A    between atoms: _501  and  _503
REMARK  214  A    between atoms: _503  and  _504
REMARK  215  A    between atoms: _503  and  _506
REMARK  216  A    between atoms: _506  and  _507
REMARK  217  A    between atoms: _512  and  _513
REMARK  218  A    between atoms: _515  and  _517
REMARK  219  A    between atoms: _517  and  _518
REMARK  220  A    between atoms: _517  and  _520
REMARK  221  A    between atoms: _520  and  _521
REMARK                            x       y       z     vdW  Elec       q    Type
REMARK                         _______ _______ _______ _____ _____    ______ ____
ROOT
ATOM      1  O   HOH     1      11.376   5.693  28.287  0.00  0.00    +0.000 OA
ENDROOT
TORSDOF 0
REMARK  Name = ../refined-set-2016/2vwm/2vwm_pocket.pdb
REMARK  221 active torsions:
REMARK  status: ('A' for Active; 'I' for Inactive)
REMARK    1  A    between atoms: _1  and  _5
REMARK    2  A    between atoms: _5  and  _6
REMARK    3  A    between atoms: _5  and  _8
REMARK    4  A    between atoms: _8  and  _9
REMARK    5  A    between atoms: _12  and  _14
REMARK    6  A    between atoms: _14  and  _15
REMARK    7  A    between atoms: _14  and  _17
REMARK    8  A    between atoms: _20  and  _22
REMARK    9  A    between atoms: _22  and  _23
REMARK   10  A    between atoms: _22  and  _25
REMARK   11  A    between atoms: _25  and  _26
REMARK   12  A    between atoms: _31  and  _33
REMARK   13  A    between atoms: _33  and  _34
REMARK   14  A    between atoms: _33  and  _36
REMARK   15  A    between atoms: _36  and  _37
REMARK   16  A    between atoms: _37  and  _38
REMARK   17  A    between atoms: _43  and  _45
REMARK   18  A    between atoms: _45  and  _46
REMARK   19  A    between atoms: _45  and  _48
REMARK   20  A    between atoms: _48  and  _49
REMARK   21  A    between atoms: _52  and  _54
REMARK   22  A    between atoms: _54  and  _55
REMARK   23  A    between atoms: _54  and  _57
REMARK   24  A    between atoms: _57  and  _58
REMARK   25  A    between atoms: _58  and  _59
REMARK   26  A    between atoms: _59  and  _60
REMARK   27  A    between atoms: _60  and  _61
REMARK   28  A    between atoms: _65  and  _67
REMARK   29  A    between atoms: _67  and  _68
REMARK   30  A    between atoms: _67  and  _70
REMARK   31  A    between atoms: _70  and  _71
REMARK   32  A    between atoms: _71  and  _72
REMARK   33  A    between atoms: _75  and  _77
REMARK   34  A    between atoms: _77  and  _78
REMARK   35  A    between atoms: _77  and  _80
REMARK   36  A    between atoms: _80  and  _81
REMARK   37  A    between atoms: _84  and  _86
REMARK   38  A    between atoms: _86  and  _87
REMARK   39  A    between atoms: _86  and  _89
REMARK   40  A    between atoms: _89  and  _90
REMARK   41  A    between atoms: _95  and  _96
REMARK   42  A    between atoms: _98  and  _100
REMARK   43  A    between atoms: _100  and  _101
REMARK   44  A    between atoms: _100  and  _103
REMARK   45  A    between atoms: _103  and  _104
REMARK   46  A    between atoms: _107  and  _109
REMARK   47  A    between atoms: _109  and  _110
REMARK   48  A    between atoms: _109  and  _112
REMARK   49  A    between atoms: _112  and  _113
REMARK   50  A    between atoms: _116  and  _118
REMARK   51  A    between atoms: _118  and  _119
REMARK   52  A    between atoms: _118  and  _121
REMARK   53  A    between atoms: _124  and  _126
REMARK   54  A    between atoms: _126  and  _127
REMARK   55  A    between atoms: _126  and  _129
REMARK   56  A    between atoms: _129  and  _130
REMARK   57  A    between atoms: _130  and  _131
REMARK   58  A    between atoms: _131  and  _132
REMARK   59  A    between atoms: _141  and  _143
REMARK   60  A    between atoms: _143  and  _144
REMARK   61  A    between atoms: _143  and  _146
REMARK   62  A    between atoms: _146  and  _147
REMARK   63  A    between atoms: _152  and  _154
REMARK   64  A    between atoms: _154  and  _155
REMARK   65  A    between atoms: _154  and  _157
REMARK   66  A    between atoms: _157  and  _158
REMARK   67  A    between atoms: _158  and  _159
REMARK   68  A    between atoms: _162  and  _164
REMARK   69  A    between atoms: _164  and  _165
REMARK   70  A    between atoms: _164  and  _167
REMARK   71  A    between atoms: _167  and  _168
REMARK   72  A    between atoms: _168  and  _169
REMARK   73  A    between atoms: _169  and  _170
REMARK   74  A    between atoms: _170  and  _171
REMARK   75  A    between atoms: _175  and  _177
REMARK   76  A    between atoms: _177  and  _178
REMARK   77  A    between atoms: _180  and  _182
REMARK   78  A    between atoms: _182  and  _183
REMARK   79  A    between atoms: _182  and  _185
REMARK   80  A    between atoms: _188  and  _190
REMARK   81  A    between atoms: _190  and  _191
REMARK   82  A    between atoms: _190  and  _193
REMARK   83  A    between atoms: _193  and  _194
REMARK   84  A    between atoms: _196  and  _198
REMARK   85  A    between atoms: _198  and  _199
REMARK   86  A    between atoms: _198  and  _201
REMARK   87  A    between atoms: _201  and  _202
REMARK   88  A    between atoms: _204  and  _206
REMARK   89  A    between atoms: _206  and  _207
REMARK   90  A    between atoms: _206  and  _209
REMARK   91  A    between atoms: _209  and  _210
REMARK   92  A    between atoms: _216  and  _218
REMARK   93  A    between atoms: _218  and  _219
REMARK   94  A    between atoms: _218  and  _221
REMARK   95  A    between atoms: _221  and  _222
REMARK   96  A    between atoms: _225  and  _227
REMARK   97  A    between atoms: _227  and  _228
REMARK   98  A    between atoms: _227  and  _230
REMARK   99  A    between atoms: _230  and  _231
REMARK  100  A    between atoms: _234  and  _236
REMARK  101  A    between atoms: _236  and  _237
REMARK  102  A    between atoms: _236  and  _239
REMARK  103  A    between atoms: _239  and  _240
REMARK  104  A    between atoms: _243  and  _245
REMARK  105  A    between atoms: _245  and  _246
REMARK  106  A    between atoms: _245  and  _248
REMARK  107  A    between atoms: _248  and  _249
REMARK  108  A    between atoms: _249  and  _250
REMARK  109  A    between atoms: _252  and  _254
REMARK  110  A    between atoms: _254  and  _255
REMARK  111  A    between atoms: _254  and  _257
REMARK  112  A    between atoms: _257  and  _258
REMARK  113  A    between atoms: _264  and  _266
REMARK  114  A    between atoms: _266  and  _267
REMARK  115  A    between atoms: _266  and  _269
REMARK  116  A    between atoms: _271  and  _273
REMARK  117  A    between atoms: _273  and  _274
REMARK  118  A    between atoms: _277  and  _279
REMARK  119  A    between atoms: _279  and  _280
REMARK  120  A    between atoms: _282  and  _284
REMARK  121  A    between atoms: _284  and  _285
REMARK  122  A    between atoms: _284  and  _287
REMARK  123  A    between atoms: _287  and  _288
REMARK  124  A    between atoms: _288  and  _289
REMARK  125  A    between atoms: _292  and  _294
REMARK  126  A    between atoms: _294  and  _295
REMARK  127  A    between atoms: _294  and  _297
REMARK  128  A    between atoms: _297  and  _298
REMARK  129  A    between atoms: _301  and  _303
REMARK  130  A    between atoms: _303  and  _304
REMARK  131  A    between atoms: _307  and  _309
REMARK  132  A    between atoms: _309  and  _310
REMARK  133  A    between atoms: _309  and  _312
REMARK  134  A    between atoms: _312  and  _313
REMARK  135  A    between atoms: _313  and  _436
REMARK  136  A    between atoms: _314  and  _316
REMARK  137  A    between atoms: _316  and  _317
REMARK  138  A    between atoms: _316  and  _319
REMARK  139  A    between atoms: _319  and  _320
REMARK  140  A    between atoms: _320  and  _321
REMARK  141  A    between atoms: _326  and  _328
REMARK  142  A    between atoms: _328  and  _329
REMARK  143  A    between atoms: _331  and  _333
REMARK  144  A    between atoms: _333  and  _334
REMARK  145  A    between atoms: _333  and  _336
REMARK  146  A    between atoms: _336  and  _337
REMARK  147  A    between atoms: _340  and  _342
REMARK  148  A    between atoms: _342  and  _343
REMARK  149  A    between atoms: _342  and  _345
REMARK  150  A    between atoms: _345  and  _346
REMARK  151  A    between atoms: _348  and  _350
REMARK  152  A    between atoms: _350  and  _351
REMARK  153  A    between atoms: _353  and  _355
REMARK  154  A    between atoms: _355  and  _356
REMARK  155  A    between atoms: _358  and  _360
REMARK  156  A    between atoms: _360  and  _361
REMARK  157  A    between atoms: _360  and  _363
REMARK  158  A    between atoms: _363  and  _364
REMARK  159  A    between atoms: _369  and  _371
REMARK  160  A    between atoms: _371  and  _372
REMARK  161  A    between atoms: _371  and  _374
REMARK  162  A    between atoms: _374  and  _375
REMARK  163  A    between atoms: _378  and  _380
REMARK  164  A    between atoms: _380  and  _381
REMARK  165  A    between atoms: _380  and  _383
REMARK  166  A    between atoms: _386  and  _388
REMARK  167  A    between atoms: _388  and  _389
REMARK  168  A    between atoms: _388  and  _391
REMARK  169  A    between atoms: _391  and  _392
REMARK  170  A    between atoms: _394  and  _396
REMARK  171  A    between atoms: _396  and  _397
REMARK  172  A    between atoms: _396  and  _399
REMARK  173  A    between atoms: _399  and  _400
REMARK  174  A    between atoms: _410  and  _412
REMARK  175  A    between atoms: _412  and  _413
REMARK  176  A    between atoms: _415  and  _417
REMARK  177  A    between atoms: _417  and  _418
REMARK  178  A    between atoms: _417  and  _420
REMARK  179  A    between atoms: _420  and  _421
REMARK  180  A    between atoms: _421  and  _422
REMARK  181  A    between atoms: _425  and  _427
REMARK  182  A    between atoms: _427  and  _428
REMARK  183  A    between atoms: _430  and  _432
REMARK  184  A    between atoms: _432  and  _433
REMARK  185  A    between atoms: _432  and  _435
REMARK  186  A    between atoms: _435  and  _436
REMARK  187  A    between atoms: _437  and  _439
REMARK  188  A    between atoms: _439  and  _440
REMARK  189  A    between atoms: _443  and  _445
REMARK  190  A    between atoms: _445  and  _446
REMARK  191  A    between atoms: _445  and  _448
REMARK  192  A    between atoms: _448  and  _449
REMARK  193  A    between atoms: _449  and  _450
REMARK  194  A    between atoms: _450  and  _451
REMARK  195  A    between atoms: _460  and  _462
REMARK  196  A    between atoms: _462  and  _463
REMARK  197  A    between atoms: _462  and  _465
REMARK  198  A    between atoms: _465  and  _466
REMARK  199  A    between atoms: _466  and  _467
REMARK  200  A    between atoms: _467  and  _468
REMARK  201  A    between atoms: _468  and  _469
REMARK  202  A    between atoms: _473  and  _475
REMARK  203  A    between atoms: _475  and  _476
REMARK  204  A    between atoms: _475  and  _478
REMARK  205  A    between atoms: _478  and  _479
REMARK  206  A    between atoms: _484  and  _485
REMARK  207  A    between atoms: _487  and  _489
REMARK  208  A    between atoms: _489  and  _490
REMARK  209  A    between atoms: _492  and  _494
REMARK  210  A    between atoms: _494  and  _495
REMARK  211  A    between atoms: _494  and  _497
REMARK  212  A    between atoms: _497  and  _498
REMARK  213  A    between atoms: _501  and  _503
REMARK  214  A    between atoms: _503  and  _504
REMARK  215  A    between atoms: _503  and  _506
REMARK  216  A    between atoms: _506  and  _507
REMARK  217  A    between atoms: _512  and  _513
REMARK  218  A    between atoms: _515  and  _517
REMARK  219  A    between atoms: _517  and  _518
REMARK  220  A    between atoms: _517  and  _520
REMARK  221  A    between atoms: _520  and  _521
REMARK                            x       y       z     vdW  Elec       q    Type
REMARK                         _______ _______ _______ _____ _____    ______ ____
ROOT
ATOM      1  O   HOH     1      19.720   2.333  34.238  0.00  0.00    +0.000 OA
ENDROOT
TORSDOF 0
REMARK  Name = ../refined-set-2016/2vwm/2vwm_pocket.pdb
REMARK  221 active torsions:
REMARK  status: ('A' for Active; 'I' for Inactive)
REMARK    1  A    between atoms: _1  and  _5
REMARK    2  A    between atoms: _5  and  _6
REMARK    3  A    between atoms: _5  and  _8
REMARK    4  A    between atoms: _8  and  _9
REMARK    5  A    between atoms: _12  and  _14
REMARK    6  A    between atoms: _14  and  _15
REMARK    7  A    between atoms: _14  and  _17
REMARK    8  A    between atoms: _20  and  _22
REMARK    9  A    between atoms: _22  and  _23
REMARK   10  A    between atoms: _22  and  _25
REMARK   11  A    between atoms: _25  and  _26
REMARK   12  A    between atoms: _31  and  _33
REMARK   13  A    between atoms: _33  and  _34
REMARK   14  A    between atoms: _33  and  _36
REMARK   15  A    between atoms: _36  and  _37
REMARK   16  A    between atoms: _37  and  _38
REMARK   17  A    between atoms: _43  and  _45
REMARK   18  A    between atoms: _45  and  _46
REMARK   19  A    between atoms: _45  and  _48
REMARK   20  A    between atoms: _48  and  _49
REMARK   21  A    between atoms: _52  and  _54
REMARK   22  A    between atoms: _54  and  _55
REMARK   23  A    between atoms: _54  and  _57
REMARK   24  A    between atoms: _57  and  _58
REMARK   25  A    between atoms: _58  and  _59
REMARK   26  A    between atoms: _59  and  _60
REMARK   27  A    between atoms: _60  and  _61
REMARK   28  A    between atoms: _65  and  _67
REMARK   29  A    between atoms: _67  and  _68
REMARK   30  A    between atoms: _67  and  _70
REMARK   31  A    between atoms: _70  and  _71
REMARK   32  A    between atoms: _71  and  _72
REMARK   33  A    between atoms: _75  and  _77
REMARK   34  A    between atoms: _77  and  _78
REMARK   35  A    between atoms: _77  and  _80
REMARK   36  A    between atoms: _80  and  _81
REMARK   37  A    between atoms: _84  and  _86
REMARK   38  A    between atoms: _86  and  _87
REMARK   39  A    between atoms: _86  and  _89
REMARK   40  A    between atoms: _89  and  _90
REMARK   41  A    between atoms: _95  and  _96
REMARK   42  A    between atoms: _98  and  _100
REMARK   43  A    between atoms: _100  and  _101
REMARK   44  A    between atoms: _100  and  _103
REMARK   45  A    between atoms: _103  and  _104
REMARK   46  A    between atoms: _107  and  _109
REMARK   47  A    between atoms: _109  and  _110
REMARK   48  A    between atoms: _109  and  _112
REMARK   49  A    between atoms: _112  and  _113
REMARK   50  A    between atoms: _116  and  _118
REMARK   51  A    between atoms: _118  and  _119
REMARK   52  A    between atoms: _118  and  _121
REMARK   53  A    between atoms: _124  and  _126
REMARK   54  A    between atoms: _126  and  _127
REMARK   55  A    between atoms: _126  and  _129
REMARK   56  A    between atoms: _129  and  _130
REMARK   57  A    between atoms: _130  and  _131
REMARK   58  A    between atoms: _131  and  _132
REMARK   59  A    between atoms: _141  and  _143
REMARK   60  A    between atoms: _143  and  _144
REMARK   61  A    between atoms: _143  and  _146
REMARK   62  A    between atoms: _146  and  _147
REMARK   63  A    between atoms: _152  and  _154
REMARK   64  A    between atoms: _154  and  _155
REMARK   65  A    between atoms: _154  and  _157
REMARK   66  A    between atoms: _157  and  _158
REMARK   67  A    between atoms: _158  and  _159
REMARK   68  A    between atoms: _162  and  _164
REMARK   69  A    between atoms: _164  and  _165
REMARK   70  A    between atoms: _164  and  _167
REMARK   71  A    between atoms: _167  and  _168
REMARK   72  A    between atoms: _168  and  _169
REMARK   73  A    between atoms: _169  and  _170
REMARK   74  A    between atoms: _170  and  _171
REMARK   75  A    between atoms: _175  and  _177
REMARK   76  A    between atoms: _177  and  _178
REMARK   77  A    between atoms: _180  and  _182
REMARK   78  A    between atoms: _182  and  _183
REMARK   79  A    between atoms: _182  and  _185
REMARK   80  A    between atoms: _188  and  _190
REMARK   81  A    between atoms: _190  and  _191
REMARK   82  A    between atoms: _190  and  _193
REMARK   83  A    between atoms: _193  and  _194
REMARK   84  A    between atoms: _196  and  _198
REMARK   85  A    between atoms: _198  and  _199
REMARK   86  A    between atoms: _198  and  _201
REMARK   87  A    between atoms: _201  and  _202
REMARK   88  A    between atoms: _204  and  _206
REMARK   89  A    between atoms: _206  and  _207
REMARK   90  A    between atoms: _206  and  _209
REMARK   91  A    between atoms: _209  and  _210
REMARK   92  A    between atoms: _216  and  _218
REMARK   93  A    between atoms: _218  and  _219
REMARK   94  A    between atoms: _218  and  _221
REMARK   95  A    between atoms: _221  and  _222
REMARK   96  A    between atoms: _225  and  _227
REMARK   97  A    between atoms: _227  and  _228
REMARK   98  A    between atoms: _227  and  _230
REMARK   99  A    between atoms: _230  and  _231
REMARK  100  A    between atoms: _234  and  _236
REMARK  101  A    between atoms: _236  and  _237
REMARK  102  A    between atoms: _236  and  _239
REMARK  103  A    between atoms: _239  and  _240
REMARK  104  A    between atoms: _243  and  _245
REMARK  105  A    between atoms: _245  and  _246
REMARK  106  A    between atoms: _245  and  _248
REMARK  107  A    between atoms: _248  and  _249
REMARK  108  A    between atoms: _249  and  _250
REMARK  109  A    between atoms: _252  and  _254
REMARK  110  A    between atoms: _254  and  _255
REMARK  111  A    between atoms: _254  and  _257
REMARK  112  A    between atoms: _257  and  _258
REMARK  113  A    between atoms: _264  and  _266
REMARK  114  A    between atoms: _266  and  _267
REMARK  115  A    between atoms: _266  and  _269
REMARK  116  A    between atoms: _271  and  _273
REMARK  117  A    between atoms: _273  and  _274
REMARK  118  A    between atoms: _277  and  _279
REMARK  119  A    between atoms: _279  and  _280
REMARK  120  A    between atoms: _282  and  _284
REMARK  121  A    between atoms: _284  and  _285
REMARK  122  A    between atoms: _284  and  _287
REMARK  123  A    between atoms: _287  and  _288
REMARK  124  A    between atoms: _288  and  _289
REMARK  125  A    between atoms: _292  and  _294
REMARK  126  A    between atoms: _294  and  _295
REMARK  127  A    between atoms: _294  and  _297
REMARK  128  A    between atoms: _297  and  _298
REMARK  129  A    between atoms: _301  and  _303
REMARK  130  A    between atoms: _303  and  _304
REMARK  131  A    between atoms: _307  and  _309
REMARK  132  A    between atoms: _309  and  _310
REMARK  133  A    between atoms: _309  and  _312
REMARK  134  A    between atoms: _312  and  _313
REMARK  135  A    between atoms: _313  and  _436
REMARK  136  A    between atoms: _314  and  _316
REMARK  137  A    between atoms: _316  and  _317
REMARK  138  A    between atoms: _316  and  _319
REMARK  139  A    between atoms: _319  and  _320
REMARK  140  A    between atoms: _320  and  _321
REMARK  141  A    between atoms: _326  and  _328
REMARK  142  A    between atoms: _328  and  _329
REMARK  143  A    between atoms: _331  and  _333
REMARK  144  A    between atoms: _333  and  _334
REMARK  145  A    between atoms: _333  and  _336
REMARK  146  A    between atoms: _336  and  _337
REMARK  147  A    between atoms: _340  and  _342
REMARK  148  A    between atoms: _342  and  _343
REMARK  149  A    between atoms: _342  and  _345
REMARK  150  A    between atoms: _345  and  _346
REMARK  151  A    between atoms: _348  and  _350
REMARK  152  A    between atoms: _350  and  _351
REMARK  153  A    between atoms: _353  and  _355
REMARK  154  A    between atoms: _355  and  _356
REMARK  155  A    between atoms: _358  and  _360
REMARK  156  A    between atoms: _360  and  _361
REMARK  157  A    between atoms: _360  and  _363
REMARK  158  A    between atoms: _363  and  _364
REMARK  159  A    between atoms: _369  and  _371
REMARK  160  A    between atoms: _371  and  _372
REMARK  161  A    between atoms: _371  and  _374
REMARK  162  A    between atoms: _374  and  _375
REMARK  163  A    between atoms: _378  and  _380
REMARK  164  A    between atoms: _380  and  _381
REMARK  165  A    between atoms: _380  and  _383
REMARK  166  A    between atoms: _386  and  _388
REMARK  167  A    between atoms: _388  and  _389
REMARK  168  A    between atoms: _388  and  _391
REMARK  169  A    between atoms: _391  and  _392
REMARK  170  A    between atoms: _394  and  _396
REMARK  171  A    between atoms: _396  and  _397
REMARK  172  A    between atoms: _396  and  _399
REMARK  173  A    between atoms: _399  and  _400
REMARK  174  A    between atoms: _410  and  _412
REMARK  175  A    between atoms: _412  and  _413
REMARK  176  A    between atoms: _415  and  _417
REMARK  177  A    between atoms: _417  and  _418
REMARK  178  A    between atoms: _417  and  _420
REMARK  179  A    between atoms: _420  and  _421
REMARK  180  A    between atoms: _421  and  _422
REMARK  181  A    between atoms: _425  and  _427
REMARK  182  A    between atoms: _427  and  _428
REMARK  183  A    between atoms: _430  and  _432
REMARK  184  A    between atoms: _432  and  _433
REMARK  185  A    between atoms: _432  and  _435
REMARK  186  A    between atoms: _435  and  _436
REMARK  187  A    between atoms: _437  and  _439
REMARK  188  A    between atoms: _439  and  _440
REMARK  189  A    between atoms: _443  and  _445
REMARK  190  A    between atoms: _445  and  _446
REMARK  191  A    between atoms: _445  and  _448
REMARK  192  A    between atoms: _448  and  _449
REMARK  193  A    between atoms: _449  and  _450
REMARK  194  A    between atoms: _450  and  _451
REMARK  195  A    between atoms: _460  and  _462
REMARK  196  A    between atoms: _462  and  _463
REMARK  197  A    between atoms: _462  and  _465
REMARK  198  A    between atoms: _465  and  _466
REMARK  199  A    between atoms: _466  and  _467
REMARK  200  A    between atoms: _467  and  _468
REMARK  201  A    between atoms: _468  and  _469
REMARK  202  A    between atoms: _473  and  _475
REMARK  203  A    between atoms: _475  and  _476
REMARK  204  A    between atoms: _475  and  _478
REMARK  205  A    between atoms: _478  and  _479
REMARK  206  A    between atoms: _484  and  _485
REMARK  207  A    between atoms: _487  and  _489
REMARK  208  A    between atoms: _489  and  _490
REMARK  209  A    between atoms: _492  and  _494
REMARK  210  A    between atoms: _494  and  _495
REMARK  211  A    between atoms: _494  and  _497
REMARK  212  A    between atoms: _497  and  _498
REMARK  213  A    between atoms: _501  and  _503
REMARK  214  A    between atoms: _503  and  _504
REMARK  215  A    between atoms: _503  and  _506
REMARK  216  A    between atoms: _506  and  _507
REMARK  217  A    between atoms: _512  and  _513
REMARK  218  A    between atoms: _515  and  _517
REMARK  219  A    between atoms: _517  and  _518
REMARK  220  A    between atoms: _517  and  _520
REMARK  221  A    between atoms: _520  and  _521
REMARK                            x       y       z     vdW  Elec       q    Type
REMARK                         _______ _______ _______ _____ _____    ______ ____
ROOT
ATOM      1  O   HOH     1      18.477  -2.118  28.832  0.00  0.00    +0.000 OA
ENDROOT
TORSDOF 0
REMARK  Name = ../refined-set-2016/2vwm/2vwm_pocket.pdb
REMARK  221 active torsions:
REMARK  status: ('A' for Active; 'I' for Inactive)
REMARK    1  A    between atoms: _1  and  _5
REMARK    2  A    between atoms: _5  and  _6
REMARK    3  A    between atoms: _5  and  _8
REMARK    4  A    between atoms: _8  and  _9
REMARK    5  A    between atoms: _12  and  _14
REMARK    6  A    between atoms: _14  and  _15
REMARK    7  A    between atoms: _14  and  _17
REMARK    8  A    between atoms: _20  and  _22
REMARK    9  A    between atoms: _22  and  _23
REMARK   10  A    between atoms: _22  and  _25
REMARK   11  A    between atoms: _25  and  _26
REMARK   12  A    between atoms: _31  and  _33
REMARK   13  A    between atoms: _33  and  _34
REMARK   14  A    between atoms: _33  and  _36
REMARK   15  A    between atoms: _36  and  _37
REMARK   16  A    between atoms: _37  and  _38
REMARK   17  A    between atoms: _43  and  _45
REMARK   18  A    between atoms: _45  and  _46
REMARK   19  A    between atoms: _45  and  _48
REMARK   20  A    between atoms: _48  and  _49
REMARK   21  A    between atoms: _52  and  _54
REMARK   22  A    between atoms: _54  and  _55
REMARK   23  A    between atoms: _54  and  _57
REMARK   24  A    between atoms: _57  and  _58
REMARK   25  A    between atoms: _58  and  _59
REMARK   26  A    between atoms: _59  and  _60
REMARK   27  A    between atoms: _60  and  _61
REMARK   28  A    between atoms: _65  and  _67
REMARK   29  A    between atoms: _67  and  _68
REMARK   30  A    between atoms: _67  and  _70
REMARK   31  A    between atoms: _70  and  _71
REMARK   32  A    between atoms: _71  and  _72
REMARK   33  A    between atoms: _75  and  _77
REMARK   34  A    between atoms: _77  and  _78
REMARK   35  A    between atoms: _77  and  _80
REMARK   36  A    between atoms: _80  and  _81
REMARK   37  A    between atoms: _84  and  _86
REMARK   38  A    between atoms: _86  and  _87
REMARK   39  A    between atoms: _86  and  _89
REMARK   40  A    between atoms: _89  and  _90
REMARK   41  A    between atoms: _95  and  _96
REMARK   42  A    between atoms: _98  and  _100
REMARK   43  A    between atoms: _100  and  _101
REMARK   44  A    between atoms: _100  and  _103
REMARK   45  A    between atoms: _103  and  _104
REMARK   46  A    between atoms: _107  and  _109
REMARK   47  A    between atoms: _109  and  _110
REMARK   48  A    between atoms: _109  and  _112
REMARK   49  A    between atoms: _112  and  _113
REMARK   50  A    between atoms: _116  and  _118
REMARK   51  A    between atoms: _118  and  _119
REMARK   52  A    between atoms: _118  and  _121
REMARK   53  A    between atoms: _124  and  _126
REMARK   54  A    between atoms: _126  and  _127
REMARK   55  A    between atoms: _126  and  _129
REMARK   56  A    between atoms: _129  and  _130
REMARK   57  A    between atoms: _130  and  _131
REMARK   58  A    between atoms: _131  and  _132
REMARK   59  A    between atoms: _141  and  _143
REMARK   60  A    between atoms: _143  and  _144
REMARK   61  A    between atoms: _143  and  _146
REMARK   62  A    between atoms: _146  and  _147
REMARK   63  A    between atoms: _152  and  _154
REMARK   64  A    between atoms: _154  and  _155
REMARK   65  A    between atoms: _154  and  _157
REMARK   66  A    between atoms: _157  and  _158
REMARK   67  A    between atoms: _158  and  _159
REMARK   68  A    between atoms: _162  and  _164
REMARK   69  A    between atoms: _164  and  _165
REMARK   70  A    between atoms: _164  and  _167
REMARK   71  A    between atoms: _167  and  _168
REMARK   72  A    between atoms: _168  and  _169
REMARK   73  A    between atoms: _169  and  _170
REMARK   74  A    between atoms: _170  and  _171
REMARK   75  A    between atoms: _175  and  _177
REMARK   76  A    between atoms: _177  and  _178
REMARK   77  A    between atoms: _180  and  _182
REMARK   78  A    between atoms: _182  and  _183
REMARK   79  A    between atoms: _182  and  _185
REMARK   80  A    between atoms: _188  and  _190
REMARK   81  A    between atoms: _190  and  _191
REMARK   82  A    between atoms: _190  and  _193
REMARK   83  A    between atoms: _193  and  _194
REMARK   84  A    between atoms: _196  and  _198
REMARK   85  A    between atoms: _198  and  _199
REMARK   86  A    between atoms: _198  and  _201
REMARK   87  A    between atoms: _201  and  _202
REMARK   88  A    between atoms: _204  and  _206
REMARK   89  A    between atoms: _206  and  _207
REMARK   90  A    between atoms: _206  and  _209
REMARK   91  A    between atoms: _209  and  _210
REMARK   92  A    between atoms: _216  and  _218
REMARK   93  A    between atoms: _218  and  _219
REMARK   94  A    between atoms: _218  and  _221
REMARK   95  A    between atoms: _221  and  _222
REMARK   96  A    between atoms: _225  and  _227
REMARK   97  A    between atoms: _227  and  _228
REMARK   98  A    between atoms: _227  and  _230
REMARK   99  A    between atoms: _230  and  _231
REMARK  100  A    between atoms: _234  and  _236
REMARK  101  A    between atoms: _236  and  _237
REMARK  102  A    between atoms: _236  and  _239
REMARK  103  A    between atoms: _239  and  _240
REMARK  104  A    between atoms: _243  and  _245
REMARK  105  A    between atoms: _245  and  _246
REMARK  106  A    between atoms: _245  and  _248
REMARK  107  A    between atoms: _248  and  _249
REMARK  108  A    between atoms: _249  and  _250
REMARK  109  A    between atoms: _252  and  _254
REMARK  110  A    between atoms: _254  and  _255
REMARK  111  A    between atoms: _254  and  _257
REMARK  112  A    between atoms: _257  and  _258
REMARK  113  A    between atoms: _264  and  _266
REMARK  114  A    between atoms: _266  and  _267
REMARK  115  A    between atoms: _266  and  _269
REMARK  116  A    between atoms: _271  and  _273
REMARK  117  A    between atoms: _273  and  _274
REMARK  118  A    between atoms: _277  and  _279
REMARK  119  A    between atoms: _279  and  _280
REMARK  120  A    between atoms: _282  and  _284
REMARK  121  A    between atoms: _284  and  _285
REMARK  122  A    between atoms: _284  and  _287
REMARK  123  A    between atoms: _287  and  _288
REMARK  124  A    between atoms: _288  and  _289
REMARK  125  A    between atoms: _292  and  _294
REMARK  126  A    between atoms: _294  and  _295
REMARK  127  A    between atoms: _294  and  _297
REMARK  128  A    between atoms: _297  and  _298
REMARK  129  A    between atoms: _301  and  _303
REMARK  130  A    between atoms: _303  and  _304
REMARK  131  A    between atoms: _307  and  _309
REMARK  132  A    between atoms: _309  and  _310
REMARK  133  A    between atoms: _309  and  _312
REMARK  134  A    between atoms: _312  and  _313
REMARK  135  A    between atoms: _313  and  _436
REMARK  136  A    between atoms: _314  and  _316
REMARK  137  A    between atoms: _316  and  _317
REMARK  138  A    between atoms: _316  and  _319
REMARK  139  A    between atoms: _319  and  _320
REMARK  140  A    between atoms: _320  and  _321
REMARK  141  A    between atoms: _326  and  _328
REMARK  142  A    between atoms: _328  and  _329
REMARK  143  A    between atoms: _331  and  _333
REMARK  144  A    between atoms: _333  and  _334
REMARK  145  A    between atoms: _333  and  _336
REMARK  146  A    between atoms: _336  and  _337
REMARK  147  A    between atoms: _340  and  _342
REMARK  148  A    between atoms: _342  and  _343
REMARK  149  A    between atoms: _342  and  _345
REMARK  150  A    between atoms: _345  and  _346
REMARK  151  A    between atoms: _348  and  _350
REMARK  152  A    between atoms: _350  and  _351
REMARK  153  A    between atoms: _353  and  _355
REMARK  154  A    between atoms: _355  and  _356
REMARK  155  A    between atoms: _358  and  _360
REMARK  156  A    between atoms: _360  and  _361
REMARK  157  A    between atoms: _360  and  _363
REMARK  158  A    between atoms: _363  and  _364
REMARK  159  A    between atoms: _369  and  _371
REMARK  160  A    between atoms: _371  and  _372
REMARK  161  A    between atoms: _371  and  _374
REMARK  162  A    between atoms: _374  and  _375
REMARK  163  A    between atoms: _378  and  _380
REMARK  164  A    between atoms: _380  and  _381
REMARK  165  A    between atoms: _380  and  _383
REMARK  166  A    between atoms: _386  and  _388
REMARK  167  A    between atoms: _388  and  _389
REMARK  168  A    between atoms: _388  and  _391
REMARK  169  A    between atoms: _391  and  _392
REMARK  170  A    between atoms: _394  and  _396
REMARK  171  A    between atoms: _396  and  _397
REMARK  172  A    between atoms: _396  and  _399
REMARK  173  A    between atoms: _399  and  _400
REMARK  174  A    between atoms: _410  and  _412
REMARK  175  A    between atoms: _412  and  _413
REMARK  176  A    between atoms: _415  and  _417
REMARK  177  A    between atoms: _417  and  _418
REMARK  178  A    between atoms: _417  and  _420
REMARK  179  A    between atoms: _420  and  _421
REMARK  180  A    between atoms: _421  and  _422
REMARK  181  A    between atoms: _425  and  _427
REMARK  182  A    between atoms: _427  and  _428
REMARK  183  A    between atoms: _430  and  _432
REMARK  184  A    between atoms: _432  and  _433
REMARK  185  A    between atoms: _432  and  _435
REMARK  186  A    between atoms: _435  and  _436
REMARK  187  A    between atoms: _437  and  _439
REMARK  188  A    between atoms: _439  and  _440
REMARK  189  A    between atoms: _443  and  _445
REMARK  190  A    between atoms: _445  and  _446
REMARK  191  A    between atoms: _445  and  _448
REMARK  192  A    between atoms: _448  and  _449
REMARK  193  A    between atoms: _449  and  _450
REMARK  194  A    between atoms: _450  and  _451
REMARK  195  A    between atoms: _460  and  _462
REMARK  196  A    between atoms: _462  and  _463
REMARK  197  A    between atoms: _462  and  _465
REMARK  198  A    between atoms: _465  and  _466
REMARK  199  A    between atoms: _466  and  _467
REMARK  200  A    between atoms: _467  and  _468
REMARK  201  A    between atoms: _468  and  _469
REMARK  202  A    between atoms: _473  and  _475
REMARK  203  A    between atoms: _475  and  _476
REMARK  204  A    between atoms: _475  and  _478
REMARK  205  A    between atoms: _478  and  _479
REMARK  206  A    between atoms: _484  and  _485
REMARK  207  A    between atoms: _487  and  _489
REMARK  208  A    between atoms: _489  and  _490
REMARK  209  A    between atoms: _492  and  _494
REMARK  210  A    between atoms: _494  and  _495
REMARK  211  A    between atoms: _494  and  _497
REMARK  212  A    between atoms: _497  and  _498
REMARK  213  A    between atoms: _501  and  _503
REMARK  214  A    between atoms: _503  and  _504
REMARK  215  A    between atoms: _503  and  _506
REMARK  216  A    between atoms: _506  and  _507
REMARK  217  A    between atoms: _512  and  _513
REMARK  218  A    between atoms: _515  and  _517
REMARK  219  A    between atoms: _517  and  _518
REMARK  220  A    between atoms: _517  and  _520
REMARK  221  A    between atoms: _520  and  _521
REMARK                            x       y       z     vdW  Elec       q    Type
REMARK                         _______ _______ _______ _____ _____    ______ ____
ROOT
ATOM      1  O   HOH     1      18.803   3.616  25.287  0.00  0.00    +0.000 OA
ENDROOT
TORSDOF 0
REMARK  Name = ../refined-set-2016/2vwm/2vwm_pocket.pdb
REMARK  221 active torsions:
REMARK  status: ('A' for Active; 'I' for Inactive)
REMARK    1  A    between atoms: _1  and  _5
REMARK    2  A    between atoms: _5  and  _6
REMARK    3  A    between atoms: _5  and  _8
REMARK    4  A    between atoms: _8  and  _9
REMARK    5  A    between atoms: _12  and  _14
REMARK    6  A    between atoms: _14  and  _15
REMARK    7  A    between atoms: _14  and  _17
REMARK    8  A    between atoms: _20  and  _22
REMARK    9  A    between atoms: _22  and  _23
REMARK   10  A    between atoms: _22  and  _25
REMARK   11  A    between atoms: _25  and  _26
REMARK   12  A    between atoms: _31  and  _33
REMARK   13  A    between atoms: _33  and  _34
REMARK   14  A    between atoms: _33  and  _36
REMARK   15  A    between atoms: _36  and  _37
REMARK   16  A    between atoms: _37  and  _38
REMARK   17  A    between atoms: _43  and  _45
REMARK   18  A    between atoms: _45  and  _46
REMARK   19  A    between atoms: _45  and  _48
REMARK   20  A    between atoms: _48  and  _49
REMARK   21  A    between atoms: _52  and  _54
REMARK   22  A    between atoms: _54  and  _55
REMARK   23  A    between atoms: _54  and  _57
REMARK   24  A    between atoms: _57  and  _58
REMARK   25  A    between atoms: _58  and  _59
REMARK   26  A    between atoms: _59  and  _60
REMARK   27  A    between atoms: _60  and  _61
REMARK   28  A    between atoms: _65  and  _67
REMARK   29  A    between atoms: _67  and  _68
REMARK   30  A    between atoms: _67  and  _70
REMARK   31  A    between atoms: _70  and  _71
REMARK   32  A    between atoms: _71  and  _72
REMARK   33  A    between atoms: _75  and  _77
REMARK   34  A    between atoms: _77  and  _78
REMARK   35  A    between atoms: _77  and  _80
REMARK   36  A    between atoms: _80  and  _81
REMARK   37  A    between atoms: _84  and  _86
REMARK   38  A    between atoms: _86  and  _87
REMARK   39  A    between atoms: _86  and  _89
REMARK   40  A    between atoms: _89  and  _90
REMARK   41  A    between atoms: _95  and  _96
REMARK   42  A    between atoms: _98  and  _100
REMARK   43  A    between atoms: _100  and  _101
REMARK   44  A    between atoms: _100  and  _103
REMARK   45  A    between atoms: _103  and  _104
REMARK   46  A    between atoms: _107  and  _109
REMARK   47  A    between atoms: _109  and  _110
REMARK   48  A    between atoms: _109  and  _112
REMARK   49  A    between atoms: _112  and  _113
REMARK   50  A    between atoms: _116  and  _118
REMARK   51  A    between atoms: _118  and  _119
REMARK   52  A    between atoms: _118  and  _121
REMARK   53  A    between atoms: _124  and  _126
REMARK   54  A    between atoms: _126  and  _127
REMARK   55  A    between atoms: _126  and  _129
REMARK   56  A    between atoms: _129  and  _130
REMARK   57  A    between atoms: _130  and  _131
REMARK   58  A    between atoms: _131  and  _132
REMARK   59  A    between atoms: _141  and  _143
REMARK   60  A    between atoms: _143  and  _144
REMARK   61  A    between atoms: _143  and  _146
REMARK   62  A    between atoms: _146  and  _147
REMARK   63  A    between atoms: _152  and  _154
REMARK   64  A    between atoms: _154  and  _155
REMARK   65  A    between atoms: _154  and  _157
REMARK   66  A    between atoms: _157  and  _158
REMARK   67  A    between atoms: _158  and  _159
REMARK   68  A    between atoms: _162  and  _164
REMARK   69  A    between atoms: _164  and  _165
REMARK   70  A    between atoms: _164  and  _167
REMARK   71  A    between atoms: _167  and  _168
REMARK   72  A    between atoms: _168  and  _169
REMARK   73  A    between atoms: _169  and  _170
REMARK   74  A    between atoms: _170  and  _171
REMARK   75  A    between atoms: _175  and  _177
REMARK   76  A    between atoms: _177  and  _178
REMARK   77  A    between atoms: _180  and  _182
REMARK   78  A    between atoms: _182  and  _183
REMARK   79  A    between atoms: _182  and  _185
REMARK   80  A    between atoms: _188  and  _190
REMARK   81  A    between atoms: _190  and  _191
REMARK   82  A    between atoms: _190  and  _193
REMARK   83  A    between atoms: _193  and  _194
REMARK   84  A    between atoms: _196  and  _198
REMARK   85  A    between atoms: _198  and  _199
REMARK   86  A    between atoms: _198  and  _201
REMARK   87  A    between atoms: _201  and  _202
REMARK   88  A    between atoms: _204  and  _206
REMARK   89  A    between atoms: _206  and  _207
REMARK   90  A    between atoms: _206  and  _209
REMARK   91  A    between atoms: _209  and  _210
REMARK   92  A    between atoms: _216  and  _218
REMARK   93  A    between atoms: _218  and  _219
REMARK   94  A    between atoms: _218  and  _221
REMARK   95  A    between atoms: _221  and  _222
REMARK   96  A    between atoms: _225  and  _227
REMARK   97  A    between atoms: _227  and  _228
REMARK   98  A    between atoms: _227  and  _230
REMARK   99  A    between atoms: _230  and  _231
REMARK  100  A    between atoms: _234  and  _236
REMARK  101  A    between atoms: _236  and  _237
REMARK  102  A    between atoms: _236  and  _239
REMARK  103  A    between atoms: _239  and  _240
REMARK  104  A    between atoms: _243  and  _245
REMARK  105  A    between atoms: _245  and  _246
REMARK  106  A    between atoms: _245  and  _248
REMARK  107  A    between atoms: _248  and  _249
REMARK  108  A    between atoms: _249  and  _250
REMARK  109  A    between atoms: _252  and  _254
REMARK  110  A    between atoms: _254  and  _255
REMARK  111  A    between atoms: _254  and  _257
REMARK  112  A    between atoms: _257  and  _258
REMARK  113  A    between atoms: _264  and  _266
REMARK  114  A    between atoms: _266  and  _267
REMARK  115  A    between atoms: _266  and  _269
REMARK  116  A    between atoms: _271  and  _273
REMARK  117  A    between atoms: _273  and  _274
REMARK  118  A    between atoms: _277  and  _279
REMARK  119  A    between atoms: _279  and  _280
REMARK  120  A    between atoms: _282  and  _284
REMARK  121  A    between atoms: _284  and  _285
REMARK  122  A    between atoms: _284  and  _287
REMARK  123  A    between atoms: _287  and  _288
REMARK  124  A    between atoms: _288  and  _289
REMARK  125  A    between atoms: _292  and  _294
REMARK  126  A    between atoms: _294  and  _295
REMARK  127  A    between atoms: _294  and  _297
REMARK  128  A    between atoms: _297  and  _298
REMARK  129  A    between atoms: _301  and  _303
REMARK  130  A    between atoms: _303  and  _304
REMARK  131  A    between atoms: _307  and  _309
REMARK  132  A    between atoms: _309  and  _310
REMARK  133  A    between atoms: _309  and  _312
REMARK  134  A    between atoms: _312  and  _313
REMARK  135  A    between atoms: _313  and  _436
REMARK  136  A    between atoms: _314  and  _316
REMARK  137  A    between atoms: _316  and  _317
REMARK  138  A    between atoms: _316  and  _319
REMARK  139  A    between atoms: _319  and  _320
REMARK  140  A    between atoms: _320  and  _321
REMARK  141  A    between atoms: _326  and  _328
REMARK  142  A    between atoms: _328  and  _329
REMARK  143  A    between atoms: _331  and  _333
REMARK  144  A    between atoms: _333  and  _334
REMARK  145  A    between atoms: _333  and  _336
REMARK  146  A    between atoms: _336  and  _337
REMARK  147  A    between atoms: _340  and  _342
REMARK  148  A    between atoms: _342  and  _343
REMARK  149  A    between atoms: _342  and  _345
REMARK  150  A    between atoms: _345  and  _346
REMARK  151  A    between atoms: _348  and  _350
REMARK  152  A    between atoms: _350  and  _351
REMARK  153  A    between atoms: _353  and  _355
REMARK  154  A    between atoms: _355  and  _356
REMARK  155  A    between atoms: _358  and  _360
REMARK  156  A    between atoms: _360  and  _361
REMARK  157  A    between atoms: _360  and  _363
REMARK  158  A    between atoms: _363  and  _364
REMARK  159  A    between atoms: _369  and  _371
REMARK  160  A    between atoms: _371  and  _372
REMARK  161  A    between atoms: _371  and  _374
REMARK  162  A    between atoms: _374  and  _375
REMARK  163  A    between atoms: _378  and  _380
REMARK  164  A    between atoms: _380  and  _381
REMARK  165  A    between atoms: _380  and  _383
REMARK  166  A    between atoms: _386  and  _388
REMARK  167  A    between atoms: _388  and  _389
REMARK  168  A    between atoms: _388  and  _391
REMARK  169  A    between atoms: _391  and  _392
REMARK  170  A    between atoms: _394  and  _396
REMARK  171  A    between atoms: _396  and  _397
REMARK  172  A    between atoms: _396  and  _399
REMARK  173  A    between atoms: _399  and  _400
REMARK  174  A    between atoms: _410  and  _412
REMARK  175  A    between atoms: _412  and  _413
REMARK  176  A    between atoms: _415  and  _417
REMARK  177  A    between atoms: _417  and  _418
REMARK  178  A    between atoms: _417  and  _420
REMARK  179  A    between atoms: _420  and  _421
REMARK  180  A    between atoms: _421  and  _422
REMARK  181  A    between atoms: _425  and  _427
REMARK  182  A    between atoms: _427  and  _428
REMARK  183  A    between atoms: _430  and  _432
REMARK  184  A    between atoms: _432  and  _433
REMARK  185  A    between atoms: _432  and  _435
REMARK  186  A    between atoms: _435  and  _436
REMARK  187  A    between atoms: _437  and  _439
REMARK  188  A    between atoms: _439  and  _440
REMARK  189  A    between atoms: _443  and  _445
REMARK  190  A    between atoms: _445  and  _446
REMARK  191  A    between atoms: _445  and  _448
REMARK  192  A    between atoms: _448  and  _449
REMARK  193  A    between atoms: _449  and  _450
REMARK  194  A    between atoms: _450  and  _451
REMARK  195  A    between atoms: _460  and  _462
REMARK  196  A    between atoms: _462  and  _463
REMARK  197  A    between atoms: _462  and  _465
REMARK  198  A    between atoms: _465  and  _466
REMARK  199  A    between atoms: _466  and  _467
REMARK  200  A    between atoms: _467  and  _468
REMARK  201  A    between atoms: _468  and  _469
REMARK  202  A    between atoms: _473  and  _475
REMARK  203  A    between atoms: _475  and  _476
REMARK  204  A    between atoms: _475  and  _478
REMARK  205  A    between atoms: _478  and  _479
REMARK  206  A    between atoms: _484  and  _485
REMARK  207  A    between atoms: _487  and  _489
REMARK  208  A    between atoms: _489  and  _490
REMARK  209  A    between atoms: _492  and  _494
REMARK  210  A    between atoms: _494  and  _495
REMARK  211  A    between atoms: _494  and  _497
REMARK  212  A    between atoms: _497  and  _498
REMARK  213  A    between atoms: _501  and  _503
REMARK  214  A    between atoms: _503  and  _504
REMARK  215  A    between atoms: _503  and  _506
REMARK  216  A    between atoms: _506  and  _507
REMARK  217  A    between atoms: _512  and  _513
REMARK  218  A    between atoms: _515  and  _517
REMARK  219  A    between atoms: _517  and  _518
REMARK  220  A    between atoms: _517  and  _520
REMARK  221  A    between atoms: _520  and  _521
REMARK                            x       y       z     vdW  Elec       q    Type
REMARK                         _______ _______ _______ _____ _____    ______ ____
ROOT
ATOM      1  O   HOH     1      17.011  -4.924  31.274  0.00  0.00    +0.000 OA
ENDROOT
TORSDOF 0
REMARK  Name = ../refined-set-2016/2vwm/2vwm_pocket.pdb
REMARK  221 active torsions:
REMARK  status: ('A' for Active; 'I' for Inactive)
REMARK    1  A    between atoms: _1  and  _5
REMARK    2  A    between atoms: _5  and  _6
REMARK    3  A    between atoms: _5  and  _8
REMARK    4  A    between atoms: _8  and  _9
REMARK    5  A    between atoms: _12  and  _14
REMARK    6  A    between atoms: _14  and  _15
REMARK    7  A    between atoms: _14  and  _17
REMARK    8  A    between atoms: _20  and  _22
REMARK    9  A    between atoms: _22  and  _23
REMARK   10  A    between atoms: _22  and  _25
REMARK   11  A    between atoms: _25  and  _26
REMARK   12  A    between atoms: _31  and  _33
REMARK   13  A    between atoms: _33  and  _34
REMARK   14  A    between atoms: _33  and  _36
REMARK   15  A    between atoms: _36  and  _37
REMARK   16  A    between atoms: _37  and  _38
REMARK   17  A    between atoms: _43  and  _45
REMARK   18  A    between atoms: _45  and  _46
REMARK   19  A    between atoms: _45  and  _48
REMARK   20  A    between atoms: _48  and  _49
REMARK   21  A    between atoms: _52  and  _54
REMARK   22  A    between atoms: _54  and  _55
REMARK   23  A    between atoms: _54  and  _57
REMARK   24  A    between atoms: _57  and  _58
REMARK   25  A    between atoms: _58  and  _59
REMARK   26  A    between atoms: _59  and  _60
REMARK   27  A    between atoms: _60  and  _61
REMARK   28  A    between atoms: _65  and  _67
REMARK   29  A    between atoms: _67  and  _68
REMARK   30  A    between atoms: _67  and  _70
REMARK   31  A    between atoms: _70  and  _71
REMARK   32  A    between atoms: _71  and  _72
REMARK   33  A    between atoms: _75  and  _77
REMARK   34  A    between atoms: _77  and  _78
REMARK   35  A    between atoms: _77  and  _80
REMARK   36  A    between atoms: _80  and  _81
REMARK   37  A    between atoms: _84  and  _86
REMARK   38  A    between atoms: _86  and  _87
REMARK   39  A    between atoms: _86  and  _89
REMARK   40  A    between atoms: _89  and  _90
REMARK   41  A    between atoms: _95  and  _96
REMARK   42  A    between atoms: _98  and  _100
REMARK   43  A    between atoms: _100  and  _101
REMARK   44  A    between atoms: _100  and  _103
REMARK   45  A    between atoms: _103  and  _104
REMARK   46  A    between atoms: _107  and  _109
REMARK   47  A    between atoms: _109  and  _110
REMARK   48  A    between atoms: _109  and  _112
REMARK   49  A    between atoms: _112  and  _113
REMARK   50  A    between atoms: _116  and  _118
REMARK   51  A    between atoms: _118  and  _119
REMARK   52  A    between atoms: _118  and  _121
REMARK   53  A    between atoms: _124  and  _126
REMARK   54  A    between atoms: _126  and  _127
REMARK   55  A    between atoms: _126  and  _129
REMARK   56  A    between atoms: _129  and  _130
REMARK   57  A    between atoms: _130  and  _131
REMARK   58  A    between atoms: _131  and  _132
REMARK   59  A    between atoms: _141  and  _143
REMARK   60  A    between atoms: _143  and  _144
REMARK   61  A    between atoms: _143  and  _146
REMARK   62  A    between atoms: _146  and  _147
REMARK   63  A    between atoms: _152  and  _154
REMARK   64  A    between atoms: _154  and  _155
REMARK   65  A    between atoms: _154  and  _157
REMARK   66  A    between atoms: _157  and  _158
REMARK   67  A    between atoms: _158  and  _159
REMARK   68  A    between atoms: _162  and  _164
REMARK   69  A    between atoms: _164  and  _165
REMARK   70  A    between atoms: _164  and  _167
REMARK   71  A    between atoms: _167  and  _168
REMARK   72  A    between atoms: _168  and  _169
REMARK   73  A    between atoms: _169  and  _170
REMARK   74  A    between atoms: _170  and  _171
REMARK   75  A    between atoms: _175  and  _177
REMARK   76  A    between atoms: _177  and  _178
REMARK   77  A    between atoms: _180  and  _182
REMARK   78  A    between atoms: _182  and  _183
REMARK   79  A    between atoms: _182  and  _185
REMARK   80  A    between atoms: _188  and  _190
REMARK   81  A    between atoms: _190  and  _191
REMARK   82  A    between atoms: _190  and  _193
REMARK   83  A    between atoms: _193  and  _194
REMARK   84  A    between atoms: _196  and  _198
REMARK   85  A    between atoms: _198  and  _199
REMARK   86  A    between atoms: _198  and  _201
REMARK   87  A    between atoms: _201  and  _202
REMARK   88  A    between atoms: _204  and  _206
REMARK   89  A    between atoms: _206  and  _207
REMARK   90  A    between atoms: _206  and  _209
REMARK   91  A    between atoms: _209  and  _210
REMARK   92  A    between atoms: _216  and  _218
REMARK   93  A    between atoms: _218  and  _219
REMARK   94  A    between atoms: _218  and  _221
REMARK   95  A    between atoms: _221  and  _222
REMARK   96  A    between atoms: _225  and  _227
REMARK   97  A    between atoms: _227  and  _228
REMARK   98  A    between atoms: _227  and  _230
REMARK   99  A    between atoms: _230  and  _231
REMARK  100  A    between atoms: _234  and  _236
REMARK  101  A    between atoms: _236  and  _237
REMARK  102  A    between atoms: _236  and  _239
REMARK  103  A    between atoms: _239  and  _240
REMARK  104  A    between atoms: _243  and  _245
REMARK  105  A    between atoms: _245  and  _246
REMARK  106  A    between atoms: _245  and  _248
REMARK  107  A    between atoms: _248  and  _249
REMARK  108  A    between atoms: _249  and  _250
REMARK  109  A    between atoms: _252  and  _254
REMARK  110  A    between atoms: _254  and  _255
REMARK  111  A    between atoms: _254  and  _257
REMARK  112  A    between atoms: _257  and  _258
REMARK  113  A    between atoms: _264  and  _266
REMARK  114  A    between atoms: _266  and  _267
REMARK  115  A    between atoms: _266  and  _269
REMARK  116  A    between atoms: _271  and  _273
REMARK  117  A    between atoms: _273  and  _274
REMARK  118  A    between atoms: _277  and  _279
REMARK  119  A    between atoms: _279  and  _280
REMARK  120  A    between atoms: _282  and  _284
REMARK  121  A    between atoms: _284  and  _285
REMARK  122  A    between atoms: _284  and  _287
REMARK  123  A    between atoms: _287  and  _288
REMARK  124  A    between atoms: _288  and  _289
REMARK  125  A    between atoms: _292  and  _294
REMARK  126  A    between atoms: _294  and  _295
REMARK  127  A    between atoms: _294  and  _297
REMARK  128  A    between atoms: _297  and  _298
REMARK  129  A    between atoms: _301  and  _303
REMARK  130  A    between atoms: _303  and  _304
REMARK  131  A    between atoms: _307  and  _309
REMARK  132  A    between atoms: _309  and  _310
REMARK  133  A    between atoms: _309  and  _312
REMARK  134  A    between atoms: _312  and  _313
REMARK  135  A    between atoms: _313  and  _436
REMARK  136  A    between atoms: _314  and  _316
REMARK  137  A    between atoms: _316  and  _317
REMARK  138  A    between atoms: _316  and  _319
REMARK  139  A    between atoms: _319  and  _320
REMARK  140  A    between atoms: _320  and  _321
REMARK  141  A    between atoms: _326  and  _328
REMARK  142  A    between atoms: _328  and  _329
REMARK  143  A    between atoms: _331  and  _333
REMARK  144  A    between atoms: _333  and  _334
REMARK  145  A    between atoms: _333  and  _336
REMARK  146  A    between atoms: _336  and  _337
REMARK  147  A    between atoms: _340  and  _342
REMARK  148  A    between atoms: _342  and  _343
REMARK  149  A    between atoms: _342  and  _345
REMARK  150  A    between atoms: _345  and  _346
REMARK  151  A    between atoms: _348  and  _350
REMARK  152  A    between atoms: _350  and  _351
REMARK  153  A    between atoms: _353  and  _355
REMARK  154  A    between atoms: _355  and  _356
REMARK  155  A    between atoms: _358  and  _360
REMARK  156  A    between atoms: _360  and  _361
REMARK  157  A    between atoms: _360  and  _363
REMARK  158  A    between atoms: _363  and  _364
REMARK  159  A    between atoms: _369  and  _371
REMARK  160  A    between atoms: _371  and  _372
REMARK  161  A    between atoms: _371  and  _374
REMARK  162  A    between atoms: _374  and  _375
REMARK  163  A    between atoms: _378  and  _380
REMARK  164  A    between atoms: _380  and  _381
REMARK  165  A    between atoms: _380  and  _383
REMARK  166  A    between atoms: _386  and  _388
REMARK  167  A    between atoms: _388  and  _389
REMARK  168  A    between atoms: _388  and  _391
REMARK  169  A    between atoms: _391  and  _392
REMARK  170  A    between atoms: _394  and  _396
REMARK  171  A    between atoms: _396  and  _397
REMARK  172  A    between atoms: _396  and  _399
REMARK  173  A    between atoms: _399  and  _400
REMARK  174  A    between atoms: _410  and  _412
REMARK  175  A    between atoms: _412  and  _413
REMARK  176  A    between atoms: _415  and  _417
REMARK  177  A    between atoms: _417  and  _418
REMARK  178  A    between atoms: _417  and  _420
REMARK  179  A    between atoms: _420  and  _421
REMARK  180  A    between atoms: _421  and  _422
REMARK  181  A    between atoms: _425  and  _427
REMARK  182  A    between atoms: _427  and  _428
REMARK  183  A    between atoms: _430  and  _432
REMARK  184  A    between atoms: _432  and  _433
REMARK  185  A    between atoms: _432  and  _435
REMARK  186  A    between atoms: _435  and  _436
REMARK  187  A    between atoms: _437  and  _439
REMARK  188  A    between atoms: _439  and  _440
REMARK  189  A    between atoms: _443  and  _445
REMARK  190  A    between atoms: _445  and  _446
REMARK  191  A    between atoms: _445  and  _448
REMARK  192  A    between atoms: _448  and  _449
REMARK  193  A    between atoms: _449  and  _450
REMARK  194  A    between atoms: _450  and  _451
REMARK  195  A    between atoms: _460  and  _462
REMARK  196  A    between atoms: _462  and  _463
REMARK  197  A    between atoms: _462  and  _465
REMARK  198  A    between atoms: _465  and  _466
REMARK  199  A    between atoms: _466  and  _467
REMARK  200  A    between atoms: _467  and  _468
REMARK  201  A    between atoms: _468  and  _469
REMARK  202  A    between atoms: _473  and  _475
REMARK  203  A    between atoms: _475  and  _476
REMARK  204  A    between atoms: _475  and  _478
REMARK  205  A    between atoms: _478  and  _479
REMARK  206  A    between atoms: _484  and  _485
REMARK  207  A    between atoms: _487  and  _489
REMARK  208  A    between atoms: _489  and  _490
REMARK  209  A    between atoms: _492  and  _494
REMARK  210  A    between atoms: _494  and  _495
REMARK  211  A    between atoms: _494  and  _497
REMARK  212  A    between atoms: _497  and  _498
REMARK  213  A    between atoms: _501  and  _503
REMARK  214  A    between atoms: _503  and  _504
REMARK  215  A    between atoms: _503  and  _506
REMARK  216  A    between atoms: _506  and  _507
REMARK  217  A    between atoms: _512  and  _513
REMARK  218  A    between atoms: _515  and  _517
REMARK  219  A    between atoms: _517  and  _518
REMARK  220  A    between atoms: _517  and  _520
REMARK  221  A    between atoms: _520  and  _521
REMARK                            x       y       z     vdW  Elec       q    Type
REMARK                         _______ _______ _______ _____ _____    ______ ____
ROOT
ATOM      1  O   HOH     1      18.398   0.745  32.286  0.00  0.00    +0.000 OA
ENDROOT
TORSDOF 0
REMARK  Name = ../refined-set-2016/2vwm/2vwm_pocket.pdb
REMARK  221 active torsions:
REMARK  status: ('A' for Active; 'I' for Inactive)
REMARK    1  A    between atoms: _1  and  _5
REMARK    2  A    between atoms: _5  and  _6
REMARK    3  A    between atoms: _5  and  _8
REMARK    4  A    between atoms: _8  and  _9
REMARK    5  A    between atoms: _12  and  _14
REMARK    6  A    between atoms: _14  and  _15
REMARK    7  A    between atoms: _14  and  _17
REMARK    8  A    between atoms: _20  and  _22
REMARK    9  A    between atoms: _22  and  _23
REMARK   10  A    between atoms: _22  and  _25
REMARK   11  A    between atoms: _25  and  _26
REMARK   12  A    between atoms: _31  and  _33
REMARK   13  A    between atoms: _33  and  _34
REMARK   14  A    between atoms: _33  and  _36
REMARK   15  A    between atoms: _36  and  _37
REMARK   16  A    between atoms: _37  and  _38
REMARK   17  A    between atoms: _43  and  _45
REMARK   18  A    between atoms: _45  and  _46
REMARK   19  A    between atoms: _45  and  _48
REMARK   20  A    between atoms: _48  and  _49
REMARK   21  A    between atoms: _52  and  _54
REMARK   22  A    between atoms: _54  and  _55
REMARK   23  A    between atoms: _54  and  _57
REMARK   24  A    between atoms: _57  and  _58
REMARK   25  A    between atoms: _58  and  _59
REMARK   26  A    between atoms: _59  and  _60
REMARK   27  A    between atoms: _60  and  _61
REMARK   28  A    between atoms: _65  and  _67
REMARK   29  A    between atoms: _67  and  _68
REMARK   30  A    between atoms: _67  and  _70
REMARK   31  A    between atoms: _70  and  _71
REMARK   32  A    between atoms: _71  and  _72
REMARK   33  A    between atoms: _75  and  _77
REMARK   34  A    between atoms: _77  and  _78
REMARK   35  A    between atoms: _77  and  _80
REMARK   36  A    between atoms: _80  and  _81
REMARK   37  A    between atoms: _84  and  _86
REMARK   38  A    between atoms: _86  and  _87
REMARK   39  A    between atoms: _86  and  _89
REMARK   40  A    between atoms: _89  and  _90
REMARK   41  A    between atoms: _95  and  _96
REMARK   42  A    between atoms: _98  and  _100
REMARK   43  A    between atoms: _100  and  _101
REMARK   44  A    between atoms: _100  and  _103
REMARK   45  A    between atoms: _103  and  _104
REMARK   46  A    between atoms: _107  and  _109
REMARK   47  A    between atoms: _109  and  _110
REMARK   48  A    between atoms: _109  and  _112
REMARK   49  A    between atoms: _112  and  _113
REMARK   50  A    between atoms: _116  and  _118
REMARK   51  A    between atoms: _118  and  _119
REMARK   52  A    between atoms: _118  and  _121
REMARK   53  A    between atoms: _124  and  _126
REMARK   54  A    between atoms: _126  and  _127
REMARK   55  A    between atoms: _126  and  _129
REMARK   56  A    between atoms: _129  and  _130
REMARK   57  A    between atoms: _130  and  _131
REMARK   58  A    between atoms: _131  and  _132
REMARK   59  A    between atoms: _141  and  _143
REMARK   60  A    between atoms: _143  and  _144
REMARK   61  A    between atoms: _143  and  _146
REMARK   62  A    between atoms: _146  and  _147
REMARK   63  A    between atoms: _152  and  _154
REMARK   64  A    between atoms: _154  and  _155
REMARK   65  A    between atoms: _154  and  _157
REMARK   66  A    between atoms: _157  and  _158
REMARK   67  A    between atoms: _158  and  _159
REMARK   68  A    between atoms: _162  and  _164
REMARK   69  A    between atoms: _164  and  _165
REMARK   70  A    between atoms: _164  and  _167
REMARK   71  A    between atoms: _167  and  _168
REMARK   72  A    between atoms: _168  and  _169
REMARK   73  A    between atoms: _169  and  _170
REMARK   74  A    between atoms: _170  and  _171
REMARK   75  A    between atoms: _175  and  _177
REMARK   76  A    between atoms: _177  and  _178
REMARK   77  A    between atoms: _180  and  _182
REMARK   78  A    between atoms: _182  and  _183
REMARK   79  A    between atoms: _182  and  _185
REMARK   80  A    between atoms: _188  and  _190
REMARK   81  A    between atoms: _190  and  _191
REMARK   82  A    between atoms: _190  and  _193
REMARK   83  A    between atoms: _193  and  _194
REMARK   84  A    between atoms: _196  and  _198
REMARK   85  A    between atoms: _198  and  _199
REMARK   86  A    between atoms: _198  and  _201
REMARK   87  A    between atoms: _201  and  _202
REMARK   88  A    between atoms: _204  and  _206
REMARK   89  A    between atoms: _206  and  _207
REMARK   90  A    between atoms: _206  and  _209
REMARK   91  A    between atoms: _209  and  _210
REMARK   92  A    between atoms: _216  and  _218
REMARK   93  A    between atoms: _218  and  _219
REMARK   94  A    between atoms: _218  and  _221
REMARK   95  A    between atoms: _221  and  _222
REMARK   96  A    between atoms: _225  and  _227
REMARK   97  A    between atoms: _227  and  _228
REMARK   98  A    between atoms: _227  and  _230
REMARK   99  A    between atoms: _230  and  _231
REMARK  100  A    between atoms: _234  and  _236
REMARK  101  A    between atoms: _236  and  _237
REMARK  102  A    between atoms: _236  and  _239
REMARK  103  A    between atoms: _239  and  _240
REMARK  104  A    between atoms: _243  and  _245
REMARK  105  A    between atoms: _245  and  _246
REMARK  106  A    between atoms: _245  and  _248
REMARK  107  A    between atoms: _248  and  _249
REMARK  108  A    between atoms: _249  and  _250
REMARK  109  A    between atoms: _252  and  _254
REMARK  110  A    between atoms: _254  and  _255
REMARK  111  A    between atoms: _254  and  _257
REMARK  112  A    between atoms: _257  and  _258
REMARK  113  A    between atoms: _264  and  _266
REMARK  114  A    between atoms: _266  and  _267
REMARK  115  A    between atoms: _266  and  _269
REMARK  116  A    between atoms: _271  and  _273
REMARK  117  A    between atoms: _273  and  _274
REMARK  118  A    between atoms: _277  and  _279
REMARK  119  A    between atoms: _279  and  _280
REMARK  120  A    between atoms: _282  and  _284
REMARK  121  A    between atoms: _284  and  _285
REMARK  122  A    between atoms: _284  and  _287
REMARK  123  A    between atoms: _287  and  _288
REMARK  124  A    between atoms: _288  and  _289
REMARK  125  A    between atoms: _292  and  _294
REMARK  126  A    between atoms: _294  and  _295
REMARK  127  A    between atoms: _294  and  _297
REMARK  128  A    between atoms: _297  and  _298
REMARK  129  A    between atoms: _301  and  _303
REMARK  130  A    between atoms: _303  and  _304
REMARK  131  A    between atoms: _307  and  _309
REMARK  132  A    between atoms: _309  and  _310
REMARK  133  A    between atoms: _309  and  _312
REMARK  134  A    between atoms: _312  and  _313
REMARK  135  A    between atoms: _313  and  _436
REMARK  136  A    between atoms: _314  and  _316
REMARK  137  A    between atoms: _316  and  _317
REMARK  138  A    between atoms: _316  and  _319
REMARK  139  A    between atoms: _319  and  _320
REMARK  140  A    between atoms: _320  and  _321
REMARK  141  A    between atoms: _326  and  _328
REMARK  142  A    between atoms: _328  and  _329
REMARK  143  A    between atoms: _331  and  _333
REMARK  144  A    between atoms: _333  and  _334
REMARK  145  A    between atoms: _333  and  _336
REMARK  146  A    between atoms: _336  and  _337
REMARK  147  A    between atoms: _340  and  _342
REMARK  148  A    between atoms: _342  and  _343
REMARK  149  A    between atoms: _342  and  _345
REMARK  150  A    between atoms: _345  and  _346
REMARK  151  A    between atoms: _348  and  _350
REMARK  152  A    between atoms: _350  and  _351
REMARK  153  A    between atoms: _353  and  _355
REMARK  154  A    between atoms: _355  and  _356
REMARK  155  A    between atoms: _358  and  _360
REMARK  156  A    between atoms: _360  and  _361
REMARK  157  A    between atoms: _360  and  _363
REMARK  158  A    between atoms: _363  and  _364
REMARK  159  A    between atoms: _369  and  _371
REMARK  160  A    between atoms: _371  and  _372
REMARK  161  A    between atoms: _371  and  _374
REMARK  162  A    between atoms: _374  and  _375
REMARK  163  A    between atoms: _378  and  _380
REMARK  164  A    between atoms: _380  and  _381
REMARK  165  A    between atoms: _380  and  _383
REMARK  166  A    between atoms: _386  and  _388
REMARK  167  A    between atoms: _388  and  _389
REMARK  168  A    between atoms: _388  and  _391
REMARK  169  A    between atoms: _391  and  _392
REMARK  170  A    between atoms: _394  and  _396
REMARK  171  A    between atoms: _396  and  _397
REMARK  172  A    between atoms: _396  and  _399
REMARK  173  A    between atoms: _399  and  _400
REMARK  174  A    between atoms: _410  and  _412
REMARK  175  A    between atoms: _412  and  _413
REMARK  176  A    between atoms: _415  and  _417
REMARK  177  A    between atoms: _417  and  _418
REMARK  178  A    between atoms: _417  and  _420
REMARK  179  A    between atoms: _420  and  _421
REMARK  180  A    between atoms: _421  and  _422
REMARK  181  A    between atoms: _425  and  _427
REMARK  182  A    between atoms: _427  and  _428
REMARK  183  A    between atoms: _430  and  _432
REMARK  184  A    between atoms: _432  and  _433
REMARK  185  A    between atoms: _432  and  _435
REMARK  186  A    between atoms: _435  and  _436
REMARK  187  A    between atoms: _437  and  _439
REMARK  188  A    between atoms: _439  and  _440
REMARK  189  A    between atoms: _443  and  _445
REMARK  190  A    between atoms: _445  and  _446
REMARK  191  A    between atoms: _445  and  _448
REMARK  192  A    between atoms: _448  and  _449
REMARK  193  A    between atoms: _449  and  _450
REMARK  194  A    between atoms: _450  and  _451
REMARK  195  A    between atoms: _460  and  _462
REMARK  196  A    between atoms: _462  and  _463
REMARK  197  A    between atoms: _462  and  _465
REMARK  198  A    between atoms: _465  and  _466
REMARK  199  A    between atoms: _466  and  _467
REMARK  200  A    between atoms: _467  and  _468
REMARK  201  A    between atoms: _468  and  _469
REMARK  202  A    between atoms: _473  and  _475
REMARK  203  A    between atoms: _475  and  _476
REMARK  204  A    between atoms: _475  and  _478
REMARK  205  A    between atoms: _478  and  _479
REMARK  206  A    between atoms: _484  and  _485
REMARK  207  A    between atoms: _487  and  _489
REMARK  208  A    between atoms: _489  and  _490
REMARK  209  A    between atoms: _492  and  _494
REMARK  210  A    between atoms: _494  and  _495
REMARK  211  A    between atoms: _494  and  _497
REMARK  212  A    between atoms: _497  and  _498
REMARK  213  A    between atoms: _501  and  _503
REMARK  214  A    between atoms: _503  and  _504
REMARK  215  A    between atoms: _503  and  _506
REMARK  216  A    between atoms: _506  and  _507
REMARK  217  A    between atoms: _512  and  _513
REMARK  218  A    between atoms: _515  and  _517
REMARK  219  A    between atoms: _517  and  _518
REMARK  220  A    between atoms: _517  and  _520
REMARK  221  A    between atoms: _520  and  _521
REMARK                            x       y       z     vdW  Elec       q    Type
REMARK                         _______ _______ _______ _____ _____    ______ ____
ROOT
ATOM      1  O   HOH     1      18.651   3.277  22.391  0.00  0.00    +0.000 OA
ENDROOT
TORSDOF 0
REMARK  Name = ../refined-set-2016/2vwm/2vwm_pocket.pdb
REMARK  221 active torsions:
REMARK  status: ('A' for Active; 'I' for Inactive)
REMARK    1  A    between atoms: _1  and  _5
REMARK    2  A    between atoms: _5  and  _6
REMARK    3  A    between atoms: _5  and  _8
REMARK    4  A    between atoms: _8  and  _9
REMARK    5  A    between atoms: _12  and  _14
REMARK    6  A    between atoms: _14  and  _15
REMARK    7  A    between atoms: _14  and  _17
REMARK    8  A    between atoms: _20  and  _22
REMARK    9  A    between atoms: _22  and  _23
REMARK   10  A    between atoms: _22  and  _25
REMARK   11  A    between atoms: _25  and  _26
REMARK   12  A    between atoms: _31  and  _33
REMARK   13  A    between atoms: _33  and  _34
REMARK   14  A    between atoms: _33  and  _36
REMARK   15  A    between atoms: _36  and  _37
REMARK   16  A    between atoms: _37  and  _38
REMARK   17  A    between atoms: _43  and  _45
REMARK   18  A    between atoms: _45  and  _46
REMARK   19  A    between atoms: _45  and  _48
REMARK   20  A    between atoms: _48  and  _49
REMARK   21  A    between atoms: _52  and  _54
REMARK   22  A    between atoms: _54  and  _55
REMARK   23  A    between atoms: _54  and  _57
REMARK   24  A    between atoms: _57  and  _58
REMARK   25  A    between atoms: _58  and  _59
REMARK   26  A    between atoms: _59  and  _60
REMARK   27  A    between atoms: _60  and  _61
REMARK   28  A    between atoms: _65  and  _67
REMARK   29  A    between atoms: _67  and  _68
REMARK   30  A    between atoms: _67  and  _70
REMARK   31  A    between atoms: _70  and  _71
REMARK   32  A    between atoms: _71  and  _72
REMARK   33  A    between atoms: _75  and  _77
REMARK   34  A    between atoms: _77  and  _78
REMARK   35  A    between atoms: _77  and  _80
REMARK   36  A    between atoms: _80  and  _81
REMARK   37  A    between atoms: _84  and  _86
REMARK   38  A    between atoms: _86  and  _87
REMARK   39  A    between atoms: _86  and  _89
REMARK   40  A    between atoms: _89  and  _90
REMARK   41  A    between atoms: _95  and  _96
REMARK   42  A    between atoms: _98  and  _100
REMARK   43  A    between atoms: _100  and  _101
REMARK   44  A    between atoms: _100  and  _103
REMARK   45  A    between atoms: _103  and  _104
REMARK   46  A    between atoms: _107  and  _109
REMARK   47  A    between atoms: _109  and  _110
REMARK   48  A    between atoms: _109  and  _112
REMARK   49  A    between atoms: _112  and  _113
REMARK   50  A    between atoms: _116  and  _118
REMARK   51  A    between atoms: _118  and  _119
REMARK   52  A    between atoms: _118  and  _121
REMARK   53  A    between atoms: _124  and  _126
REMARK   54  A    between atoms: _126  and  _127
REMARK   55  A    between atoms: _126  and  _129
REMARK   56  A    between atoms: _129  and  _130
REMARK   57  A    between atoms: _130  and  _131
REMARK   58  A    between atoms: _131  and  _132
REMARK   59  A    between atoms: _141  and  _143
REMARK   60  A    between atoms: _143  and  _144
REMARK   61  A    between atoms: _143  and  _146
REMARK   62  A    between atoms: _146  and  _147
REMARK   63  A    between atoms: _152  and  _154
REMARK   64  A    between atoms: _154  and  _155
REMARK   65  A    between atoms: _154  and  _157
REMARK   66  A    between atoms: _157  and  _158
REMARK   67  A    between atoms: _158  and  _159
REMARK   68  A    between atoms: _162  and  _164
REMARK   69  A    between atoms: _164  and  _165
REMARK   70  A    between atoms: _164  and  _167
REMARK   71  A    between atoms: _167  and  _168
REMARK   72  A    between atoms: _168  and  _169
REMARK   73  A    between atoms: _169  and  _170
REMARK   74  A    between atoms: _170  and  _171
REMARK   75  A    between atoms: _175  and  _177
REMARK   76  A    between atoms: _177  and  _178
REMARK   77  A    between atoms: _180  and  _182
REMARK   78  A    between atoms: _182  and  _183
REMARK   79  A    between atoms: _182  and  _185
REMARK   80  A    between atoms: _188  and  _190
REMARK   81  A    between atoms: _190  and  _191
REMARK   82  A    between atoms: _190  and  _193
REMARK   83  A    between atoms: _193  and  _194
REMARK   84  A    between atoms: _196  and  _198
REMARK   85  A    between atoms: _198  and  _199
REMARK   86  A    between atoms: _198  and  _201
REMARK   87  A    between atoms: _201  and  _202
REMARK   88  A    between atoms: _204  and  _206
REMARK   89  A    between atoms: _206  and  _207
REMARK   90  A    between atoms: _206  and  _209
REMARK   91  A    between atoms: _209  and  _210
REMARK   92  A    between atoms: _216  and  _218
REMARK   93  A    between atoms: _218  and  _219
REMARK   94  A    between atoms: _218  and  _221
REMARK   95  A    between atoms: _221  and  _222
REMARK   96  A    between atoms: _225  and  _227
REMARK   97  A    between atoms: _227  and  _228
REMARK   98  A    between atoms: _227  and  _230
REMARK   99  A    between atoms: _230  and  _231
REMARK  100  A    between atoms: _234  and  _236
REMARK  101  A    between atoms: _236  and  _237
REMARK  102  A    between atoms: _236  and  _239
REMARK  103  A    between atoms: _239  and  _240
REMARK  104  A    between atoms: _243  and  _245
REMARK  105  A    between atoms: _245  and  _246
REMARK  106  A    between atoms: _245  and  _248
REMARK  107  A    between atoms: _248  and  _249
REMARK  108  A    between atoms: _249  and  _250
REMARK  109  A    between atoms: _252  and  _254
REMARK  110  A    between atoms: _254  and  _255
REMARK  111  A    between atoms: _254  and  _257
REMARK  112  A    between atoms: _257  and  _258
REMARK  113  A    between atoms: _264  and  _266
REMARK  114  A    between atoms: _266  and  _267
REMARK  115  A    between atoms: _266  and  _269
REMARK  116  A    between atoms: _271  and  _273
REMARK  117  A    between atoms: _273  and  _274
REMARK  118  A    between atoms: _277  and  _279
REMARK  119  A    between atoms: _279  and  _280
REMARK  120  A    between atoms: _282  and  _284
REMARK  121  A    between atoms: _284  and  _285
REMARK  122  A    between atoms: _284  and  _287
REMARK  123  A    between atoms: _287  and  _288
REMARK  124  A    between atoms: _288  and  _289
REMARK  125  A    between atoms: _292  and  _294
REMARK  126  A    between atoms: _294  and  _295
REMARK  127  A    between atoms: _294  and  _297
REMARK  128  A    between atoms: _297  and  _298
REMARK  129  A    between atoms: _301  and  _303
REMARK  130  A    between atoms: _303  and  _304
REMARK  131  A    between atoms: _307  and  _309
REMARK  132  A    between atoms: _309  and  _310
REMARK  133  A    between atoms: _309  and  _312
REMARK  134  A    between atoms: _312  and  _313
REMARK  135  A    between atoms: _313  and  _436
REMARK  136  A    between atoms: _314  and  _316
REMARK  137  A    between atoms: _316  and  _317
REMARK  138  A    between atoms: _316  and  _319
REMARK  139  A    between atoms: _319  and  _320
REMARK  140  A    between atoms: _320  and  _321
REMARK  141  A    between atoms: _326  and  _328
REMARK  142  A    between atoms: _328  and  _329
REMARK  143  A    between atoms: _331  and  _333
REMARK  144  A    between atoms: _333  and  _334
REMARK  145  A    between atoms: _333  and  _336
REMARK  146  A    between atoms: _336  and  _337
REMARK  147  A    between atoms: _340  and  _342
REMARK  148  A    between atoms: _342  and  _343
REMARK  149  A    between atoms: _342  and  _345
REMARK  150  A    between atoms: _345  and  _346
REMARK  151  A    between atoms: _348  and  _350
REMARK  152  A    between atoms: _350  and  _351
REMARK  153  A    between atoms: _353  and  _355
REMARK  154  A    between atoms: _355  and  _356
REMARK  155  A    between atoms: _358  and  _360
REMARK  156  A    between atoms: _360  and  _361
REMARK  157  A    between atoms: _360  and  _363
REMARK  158  A    between atoms: _363  and  _364
REMARK  159  A    between atoms: _369  and  _371
REMARK  160  A    between atoms: _371  and  _372
REMARK  161  A    between atoms: _371  and  _374
REMARK  162  A    between atoms: _374  and  _375
REMARK  163  A    between atoms: _378  and  _380
REMARK  164  A    between atoms: _380  and  _381
REMARK  165  A    between atoms: _380  and  _383
REMARK  166  A    between atoms: _386  and  _388
REMARK  167  A    between atoms: _388  and  _389
REMARK  168  A    between atoms: _388  and  _391
REMARK  169  A    between atoms: _391  and  _392
REMARK  170  A    between atoms: _394  and  _396
REMARK  171  A    between atoms: _396  and  _397
REMARK  172  A    between atoms: _396  and  _399
REMARK  173  A    between atoms: _399  and  _400
REMARK  174  A    between atoms: _410  and  _412
REMARK  175  A    between atoms: _412  and  _413
REMARK  176  A    between atoms: _415  and  _417
REMARK  177  A    between atoms: _417  and  _418
REMARK  178  A    between atoms: _417  and  _420
REMARK  179  A    between atoms: _420  and  _421
REMARK  180  A    between atoms: _421  and  _422
REMARK  181  A    between atoms: _425  and  _427
REMARK  182  A    between atoms: _427  and  _428
REMARK  183  A    between atoms: _430  and  _432
REMARK  184  A    between atoms: _432  and  _433
REMARK  185  A    between atoms: _432  and  _435
REMARK  186  A    between atoms: _435  and  _436
REMARK  187  A    between atoms: _437  and  _439
REMARK  188  A    between atoms: _439  and  _440
REMARK  189  A    between atoms: _443  and  _445
REMARK  190  A    between atoms: _445  and  _446
REMARK  191  A    between atoms: _445  and  _448
REMARK  192  A    between atoms: _448  and  _449
REMARK  193  A    between atoms: _449  and  _450
REMARK  194  A    between atoms: _450  and  _451
REMARK  195  A    between atoms: _460  and  _462
REMARK  196  A    between atoms: _462  and  _463
REMARK  197  A    between atoms: _462  and  _465
REMARK  198  A    between atoms: _465  and  _466
REMARK  199  A    between atoms: _466  and  _467
REMARK  200  A    between atoms: _467  and  _468
REMARK  201  A    between atoms: _468  and  _469
REMARK  202  A    between atoms: _473  and  _475
REMARK  203  A    between atoms: _475  and  _476
REMARK  204  A    between atoms: _475  and  _478
REMARK  205  A    between atoms: _478  and  _479
REMARK  206  A    between atoms: _484  and  _485
REMARK  207  A    between atoms: _487  and  _489
REMARK  208  A    between atoms: _489  and  _490
REMARK  209  A    between atoms: _492  and  _494
REMARK  210  A    between atoms: _494  and  _495
REMARK  211  A    between atoms: _494  and  _497
REMARK  212  A    between atoms: _497  and  _498
REMARK  213  A    between atoms: _501  and  _503
REMARK  214  A    between atoms: _503  and  _504
REMARK  215  A    between atoms: _503  and  _506
REMARK  216  A    between atoms: _506  and  _507
REMARK  217  A    between atoms: _512  and  _513
REMARK  218  A    between atoms: _515  and  _517
REMARK  219  A    between atoms: _517  and  _518
REMARK  220  A    between atoms: _517  and  _520
REMARK  221  A    between atoms: _520  and  _521
REMARK                            x       y       z     vdW  Elec       q    Type
REMARK                         _______ _______ _______ _____ _____    ______ ____
ROOT
ATOM      1  O   HOH     1      10.779   5.630  24.014  0.00  0.00    +0.000 OA
ENDROOT
TORSDOF 0
