REMARK  Name = ../refined-set-2016/4n6g/4n6g_pocket.pdb
REMARK  79 active torsions:
REMARK  status: ('A' for Active; 'I' for Inactive)
REMARK    1  A    between atoms: _1  and  _3
REMARK    2  A    between atoms: _3  and  _4
REMARK    3  A    between atoms: _6  and  _8
REMARK    4  A    between atoms: _8  and  _9
REMARK    5  A    between atoms: _8  and  _11
REMARK    6  A    between atoms: _11  and  _12
REMARK    7  A    between atoms: _17  and  _19
REMARK    8  A    between atoms: _19  and  _20
REMARK    9  A    between atoms: _19  and  _22
REMARK   10  A    between atoms: _22  and  _23
REMARK   11  A    between atoms: _23  and  _24
REMARK   12  A    between atoms: _29  and  _31
REMARK   13  A    between atoms: _31  and  _32
REMARK   14  A    between atoms: _31  and  _34
REMARK   15  A    between atoms: _34  and  _35
REMARK   16  A    between atoms: _37  and  _39
REMARK   17  A    between atoms: _39  and  _40
REMARK   18  A    between atoms: _39  and  _42
REMARK   19  A    between atoms: _45  and  _47
REMARK   20  A    between atoms: _47  and  _48
REMARK   21  A    between atoms: _47  and  _50
REMARK   22  A    between atoms: _50  and  _51
REMARK   23  A    between atoms: _56  and  _57
REMARK   24  A    between atoms: _59  and  _61
REMARK   25  A    between atoms: _61  and  _62
REMARK   26  A    between atoms: _61  and  _64
REMARK   27  A    between atoms: _64  and  _65
REMARK   28  A    between atoms: _68  and  _70
REMARK   29  A    between atoms: _70  and  _71
REMARK   30  A    between atoms: _70  and  _73
REMARK   31  A    between atoms: _73  and  _74
REMARK   32  A    between atoms: _78  and  _79
REMARK   33  A    between atoms: _84  and  _86
REMARK   34  A    between atoms: _86  and  _87
REMARK   35  A    between atoms: _86  and  _89
REMARK   36  A    between atoms: _89  and  _90
REMARK   37  A    between atoms: _90  and  _91
REMARK   38  A    between atoms: _94  and  _96
REMARK   39  A    between atoms: _96  and  _97
REMARK   40  A    between atoms: _99  and  _101
REMARK   41  A    between atoms: _101  and  _102
REMARK   42  A    between atoms: _101  and  _104
REMARK   43  A    between atoms: _104  and  _105
REMARK   44  A    between atoms: _110  and  _112
REMARK   45  A    between atoms: _112  and  _113
REMARK   46  A    between atoms: _112  and  _115
REMARK   47  A    between atoms: _115  and  _116
REMARK   48  A    between atoms: _116  and  _117
REMARK   49  A    between atoms: _120  and  _122
REMARK   50  A    between atoms: _122  and  _123
REMARK   51  A    between atoms: _122  and  _125
REMARK   52  A    between atoms: _125  and  _126
REMARK   53  A    between atoms: _126  and  _127
REMARK   54  A    between atoms: _132  and  _134
REMARK   55  A    between atoms: _134  and  _135
REMARK   56  A    between atoms: _134  and  _137
REMARK   57  A    between atoms: _137  and  _138
REMARK   58  A    between atoms: _140  and  _142
REMARK   59  A    between atoms: _142  and  _143
REMARK   60  A    between atoms: _142  and  _145
REMARK   61  A    between atoms: _148  and  _150
REMARK   62  A    between atoms: _150  and  _151
REMARK   63  A    between atoms: _150  and  _153
REMARK   64  A    between atoms: _153  and  _154
REMARK   65  A    between atoms: _159  and  _160
REMARK   66  A    between atoms: _162  and  _164
REMARK   67  A    between atoms: _164  and  _165
REMARK   68  A    between atoms: _164  and  _167
REMARK   69  A    between atoms: _167  and  _168
REMARK   70  A    between atoms: _171  and  _173
REMARK   71  A    between atoms: _173  and  _174
REMARK   72  A    between atoms: _173  and  _176
REMARK   73  A    between atoms: _176  and  _177
REMARK   74  A    between atoms: _181  and  _182
REMARK   75  A    between atoms: _187  and  _189
REMARK   76  A    between atoms: _189  and  _190
REMARK   77  A    between atoms: _189  and  _192
REMARK   78  A    between atoms: _192  and  _193
REMARK   79  A    between atoms: _193  and  _194
REMARK                            x       y       z     vdW  Elec       q    Type
REMARK                         _______ _______ _______ _____ _____    ______ ____
ROOT
ATOM      1  CA  ASN A   2      21.646  24.067  -5.026  0.00  0.00    +0.146 C 
ENDROOT
BRANCH   1   3
ATOM      2  C   GLY A   1      21.709  26.510  -5.139  0.00  0.00    +0.240 C 
ATOM      3  N   ASN A   2      21.698  25.403  -4.398  0.00  0.00    -0.298 N 
ATOM      4  H   ASN A   2      21.726  25.481  -3.361  0.00  0.00    +0.150 HD
ATOM      5  O   GLY A   1      21.678  26.484  -6.374  0.00  0.00    -0.274 OA
BRANCH   2   6
ATOM      6  CA  GLY A   1      21.712  27.838  -4.395  0.00  0.00    +0.169 C 
BRANCH   6   7
ATOM      7  N   GLY A   1      20.513  28.615  -4.691  0.00  0.00    -0.236 NA
ATOM      8  H   GLY A   1      20.628  29.588  -5.040  0.00  0.00    +0.142 HD
ENDBRANCH   6   7
ENDBRANCH   2   6
ENDBRANCH   1   3
BRANCH   1   9
ATOM      9  C   ASN A   2      20.239  23.607  -5.357  0.00  0.00    +0.227 C 
ATOM     10  O   ASN A   2      20.046  22.458  -5.787  0.00  0.00    -0.286 OA
ENDBRANCH   1   9
BRANCH   1  11
ATOM     11  CB  ASN A   2      22.262  23.007  -4.110  0.00  0.00    +0.112 C 
BRANCH  11  12
ATOM     12  CG  ASN A   2      23.723  23.198  -3.920  0.00  0.00    +0.222 C 
ATOM     13  ND2 ASN A   2      24.141  23.448  -2.687  0.00  0.00    -0.329 N 
ATOM     14 HD21 ASN A   2      23.461  23.459  -1.900  0.00  0.00    +0.145 HD
ATOM     15 HD22 ASN A   2      25.148  23.633  -2.507  0.00  0.00    +0.145 HD
ATOM     16  OD1 ASN A   2      24.477  23.172  -4.885  0.00  0.00    -0.275 OA
ENDBRANCH  11  12
ENDBRANCH   1  11
TORSDOF 6
REMARK  Name = ../refined-set-2016/4n6g/4n6g_pocket.pdb
REMARK  79 active torsions:
REMARK  status: ('A' for Active; 'I' for Inactive)
REMARK    1  A    between atoms: _1  and  _3
REMARK    2  A    between atoms: _3  and  _4
REMARK    3  A    between atoms: _6  and  _8
REMARK    4  A    between atoms: _8  and  _9
REMARK    5  A    between atoms: _8  and  _11
REMARK    6  A    between atoms: _11  and  _12
REMARK    7  A    between atoms: _17  and  _19
REMARK    8  A    between atoms: _19  and  _20
REMARK    9  A    between atoms: _19  and  _22
REMARK   10  A    between atoms: _22  and  _23
REMARK   11  A    between atoms: _23  and  _24
REMARK   12  A    between atoms: _29  and  _31
REMARK   13  A    between atoms: _31  and  _32
REMARK   14  A    between atoms: _31  and  _34
REMARK   15  A    between atoms: _34  and  _35
REMARK   16  A    between atoms: _37  and  _39
REMARK   17  A    between atoms: _39  and  _40
REMARK   18  A    between atoms: _39  and  _42
REMARK   19  A    between atoms: _45  and  _47
REMARK   20  A    between atoms: _47  and  _48
REMARK   21  A    between atoms: _47  and  _50
REMARK   22  A    between atoms: _50  and  _51
REMARK   23  A    between atoms: _56  and  _57
REMARK   24  A    between atoms: _59  and  _61
REMARK   25  A    between atoms: _61  and  _62
REMARK   26  A    between atoms: _61  and  _64
REMARK   27  A    between atoms: _64  and  _65
REMARK   28  A    between atoms: _68  and  _70
REMARK   29  A    between atoms: _70  and  _71
REMARK   30  A    between atoms: _70  and  _73
REMARK   31  A    between atoms: _73  and  _74
REMARK   32  A    between atoms: _78  and  _79
REMARK   33  A    between atoms: _84  and  _86
REMARK   34  A    between atoms: _86  and  _87
REMARK   35  A    between atoms: _86  and  _89
REMARK   36  A    between atoms: _89  and  _90
REMARK   37  A    between atoms: _90  and  _91
REMARK   38  A    between atoms: _94  and  _96
REMARK   39  A    between atoms: _96  and  _97
REMARK   40  A    between atoms: _99  and  _101
REMARK   41  A    between atoms: _101  and  _102
REMARK   42  A    between atoms: _101  and  _104
REMARK   43  A    between atoms: _104  and  _105
REMARK   44  A    between atoms: _110  and  _112
REMARK   45  A    between atoms: _112  and  _113
REMARK   46  A    between atoms: _112  and  _115
REMARK   47  A    between atoms: _115  and  _116
REMARK   48  A    between atoms: _116  and  _117
REMARK   49  A    between atoms: _120  and  _122
REMARK   50  A    between atoms: _122  and  _123
REMARK   51  A    between atoms: _122  and  _125
REMARK   52  A    between atoms: _125  and  _126
REMARK   53  A    between atoms: _126  and  _127
REMARK   54  A    between atoms: _132  and  _134
REMARK   55  A    between atoms: _134  and  _135
REMARK   56  A    between atoms: _134  and  _137
REMARK   57  A    between atoms: _137  and  _138
REMARK   58  A    between atoms: _140  and  _142
REMARK   59  A    between atoms: _142  and  _143
REMARK   60  A    between atoms: _142  and  _145
REMARK   61  A    between atoms: _148  and  _150
REMARK   62  A    between atoms: _150  and  _151
REMARK   63  A    between atoms: _150  and  _153
REMARK   64  A    between atoms: _153  and  _154
REMARK   65  A    between atoms: _159  and  _160
REMARK   66  A    between atoms: _162  and  _164
REMARK   67  A    between atoms: _164  and  _165
REMARK   68  A    between atoms: _164  and  _167
REMARK   69  A    between atoms: _167  and  _168
REMARK   70  A    between atoms: _171  and  _173
REMARK   71  A    between atoms: _173  and  _174
REMARK   72  A    between atoms: _173  and  _176
REMARK   73  A    between atoms: _176  and  _177
REMARK   74  A    between atoms: _181  and  _182
REMARK   75  A    between atoms: _187  and  _189
REMARK   76  A    between atoms: _189  and  _190
REMARK   77  A    between atoms: _189  and  _192
REMARK   78  A    between atoms: _192  and  _193
REMARK   79  A    between atoms: _193  and  _194
REMARK                            x       y       z     vdW  Elec       q    Type
REMARK                         _______ _______ _______ _____ _____    ______ ____
ROOT
ATOM      1  CB  GLN A   1      23.292  16.929  -6.160  0.00  0.00    +0.035 C 
ENDROOT
BRANCH   1   2
ATOM      2  CA  GLN A   1      22.288  16.856  -7.312  0.00  0.00    +0.134 C 
BRANCH   2   3
ATOM      3  N   GLN A   1      21.448  18.049  -7.351  0.00  0.00    -0.239 NA
ATOM      4  H   GLN A   1      21.578  18.779  -6.622  0.00  0.00    +0.142 HD
ENDBRANCH   2   3
BRANCH   2   5
ATOM      5  C   GLN A   1      21.488  15.561  -7.160  0.00  0.00    +0.224 C 
ATOM      6  O   GLN A   1      21.903  14.533  -7.690  0.00  0.00    -0.287 OA
ENDBRANCH   2   5
ENDBRANCH   1   2
BRANCH   1   7
ATOM      7  CG  GLN A   1      24.396  17.958  -6.315  0.00  0.00    +0.087 C 
BRANCH   7   8
ATOM      8  CD  GLN A   1      23.990  19.327  -5.758  0.00  0.00    +0.219 C 
ATOM      9  NE2 GLN A   1      24.993  20.117  -5.352  0.00  0.00    -0.329 N 
ATOM     10 HE21 GLN A   1      24.786  21.039  -4.918  0.00  0.00    +0.145 HD
ATOM     11 HE22 GLN A   1      25.979  19.808  -5.471  0.00  0.00    +0.145 HD
ATOM     12  OE1 GLN A   1      22.786  19.648  -5.640  0.00  0.00    -0.275 OA
ENDBRANCH   7   8
ENDBRANCH   1   7
TORSDOF 5
REMARK  Name = ../refined-set-2016/4n6g/4n6g_pocket.pdb
REMARK  79 active torsions:
REMARK  status: ('A' for Active; 'I' for Inactive)
REMARK    1  A    between atoms: _1  and  _3
REMARK    2  A    between atoms: _3  and  _4
REMARK    3  A    between atoms: _6  and  _8
REMARK    4  A    between atoms: _8  and  _9
REMARK    5  A    between atoms: _8  and  _11
REMARK    6  A    between atoms: _11  and  _12
REMARK    7  A    between atoms: _17  and  _19
REMARK    8  A    between atoms: _19  and  _20
REMARK    9  A    between atoms: _19  and  _22
REMARK   10  A    between atoms: _22  and  _23
REMARK   11  A    between atoms: _23  and  _24
REMARK   12  A    between atoms: _29  and  _31
REMARK   13  A    between atoms: _31  and  _32
REMARK   14  A    between atoms: _31  and  _34
REMARK   15  A    between atoms: _34  and  _35
REMARK   16  A    between atoms: _37  and  _39
REMARK   17  A    between atoms: _39  and  _40
REMARK   18  A    between atoms: _39  and  _42
REMARK   19  A    between atoms: _45  and  _47
REMARK   20  A    between atoms: _47  and  _48
REMARK   21  A    between atoms: _47  and  _50
REMARK   22  A    between atoms: _50  and  _51
REMARK   23  A    between atoms: _56  and  _57
REMARK   24  A    between atoms: _59  and  _61
REMARK   25  A    between atoms: _61  and  _62
REMARK   26  A    between atoms: _61  and  _64
REMARK   27  A    between atoms: _64  and  _65
REMARK   28  A    between atoms: _68  and  _70
REMARK   29  A    between atoms: _70  and  _71
REMARK   30  A    between atoms: _70  and  _73
REMARK   31  A    between atoms: _73  and  _74
REMARK   32  A    between atoms: _78  and  _79
REMARK   33  A    between atoms: _84  and  _86
REMARK   34  A    between atoms: _86  and  _87
REMARK   35  A    between atoms: _86  and  _89
REMARK   36  A    between atoms: _89  and  _90
REMARK   37  A    between atoms: _90  and  _91
REMARK   38  A    between atoms: _94  and  _96
REMARK   39  A    between atoms: _96  and  _97
REMARK   40  A    between atoms: _99  and  _101
REMARK   41  A    between atoms: _101  and  _102
REMARK   42  A    between atoms: _101  and  _104
REMARK   43  A    between atoms: _104  and  _105
REMARK   44  A    between atoms: _110  and  _112
REMARK   45  A    between atoms: _112  and  _113
REMARK   46  A    between atoms: _112  and  _115
REMARK   47  A    between atoms: _115  and  _116
REMARK   48  A    between atoms: _116  and  _117
REMARK   49  A    between atoms: _120  and  _122
REMARK   50  A    between atoms: _122  and  _123
REMARK   51  A    between atoms: _122  and  _125
REMARK   52  A    between atoms: _125  and  _126
REMARK   53  A    between atoms: _126  and  _127
REMARK   54  A    between atoms: _132  and  _134
REMARK   55  A    between atoms: _134  and  _135
REMARK   56  A    between atoms: _134  and  _137
REMARK   57  A    between atoms: _137  and  _138
REMARK   58  A    between atoms: _140  and  _142
REMARK   59  A    between atoms: _142  and  _143
REMARK   60  A    between atoms: _142  and  _145
REMARK   61  A    between atoms: _148  and  _150
REMARK   62  A    between atoms: _150  and  _151
REMARK   63  A    between atoms: _150  and  _153
REMARK   64  A    between atoms: _153  and  _154
REMARK   65  A    between atoms: _159  and  _160
REMARK   66  A    between atoms: _162  and  _164
REMARK   67  A    between atoms: _164  and  _165
REMARK   68  A    between atoms: _164  and  _167
REMARK   69  A    between atoms: _167  and  _168
REMARK   70  A    between atoms: _171  and  _173
REMARK   71  A    between atoms: _173  and  _174
REMARK   72  A    between atoms: _173  and  _176
REMARK   73  A    between atoms: _176  and  _177
REMARK   74  A    between atoms: _181  and  _182
REMARK   75  A    between atoms: _187  and  _189
REMARK   76  A    between atoms: _189  and  _190
REMARK   77  A    between atoms: _189  and  _192
REMARK   78  A    between atoms: _192  and  _193
REMARK   79  A    between atoms: _193  and  _194
REMARK                            x       y       z     vdW  Elec       q    Type
REMARK                         _______ _______ _______ _____ _____    ______ ____
ROOT
ATOM      1  CA  TYR A   3      24.887  27.577  -8.415  0.00  0.00    +0.153 C 
ENDROOT
BRANCH   1   2
ATOM      2  C   TYR A   3      25.013  26.877  -9.760  0.00  0.00    +0.241 C 
ATOM      3  O   TYR A   3      24.264  25.957 -10.061  0.00  0.00    -0.273 OA
ATOM      4  N   THR A   4      25.939  27.342 -10.581  0.00  0.00    -0.295 N 
ATOM      5  H   THR A   4      26.546  28.125 -10.265  0.00  0.00    +0.150 HD
BRANCH   4   6
ATOM      6  CA  THR A   4      26.135  26.789 -11.921  0.00  0.00    +0.176 C 
BRANCH   6   7
ATOM      7  C   THR A   4      27.149  25.665 -11.803  0.00  0.00    +0.243 C 
ATOM      8  N   LEU A   5      26.683  24.539 -11.285  0.00  0.00    -0.297 N 
ATOM      9  H   LEU A   5      25.673  24.482 -11.045  0.00  0.00    +0.150 HD
ATOM     10  O   THR A   4      28.324  25.825 -12.124  0.00  0.00    -0.273 OA
BRANCH   8  11
ATOM     11  CA  LEU A   5      27.515  23.393 -11.041  0.00  0.00    +0.149 C 
BRANCH  11  12
ATOM     12  C   LEU A   5      27.475  22.354 -12.182  0.00  0.00    +0.244 C 
ATOM     13  N   PRO A   6      28.533  21.538 -12.294  0.00  0.00    -0.273 N 
ATOM     14  CD  PRO A   6      29.629  21.467 -11.319  0.00  0.00    +0.094 C 
ATOM     15  CG  PRO A   6      30.634  20.566 -12.028  0.00  0.00    +0.024 C 
ATOM     16  CB  PRO A   6      30.103  20.184 -13.337  0.00  0.00    +0.030 C 
ATOM     17  CA  PRO A   6      28.618  20.406 -13.217  0.00  0.00    +0.140 C 
ATOM     18  O   LEU A   5      26.510  22.270 -12.920  0.00  0.00    -0.273 OA
BRANCH  17  19
ATOM     19  C   PRO A   6      27.950  19.198 -12.565  0.00  0.00    +0.227 C 
ATOM     20  O   PRO A   6      27.404  19.406 -11.493  0.00  0.00    -0.286 OA
ENDBRANCH  17  19
ENDBRANCH  11  12
BRANCH  11  21
ATOM     21  CB  LEU A   5      27.087  22.753  -9.728  0.00  0.00    +0.029 C 
BRANCH  21  22
ATOM     22  CG  LEU A   5      27.376  23.737  -8.590  0.00  0.00    +0.002 C 
ATOM     23  CD2 LEU A   5      26.973  23.135  -7.275  0.00  0.00    +0.000 C 
ATOM     24  CD1 LEU A   5      28.865  24.194  -8.557  0.00  0.00    +0.000 C 
ENDBRANCH  21  22
ENDBRANCH  11  21
ENDBRANCH   8  11
ENDBRANCH   6   7
BRANCH   6  25
ATOM     25  CB  THR A   4      26.627  27.869 -12.912  0.00  0.00    +0.137 C 
ATOM     26  CG2 THR A   4      25.631  29.006 -13.019  0.00  0.00    +0.034 C 
BRANCH  25  27
ATOM     27  OG1 THR A   4      27.847  28.412 -12.421  0.00  0.00    -0.382 OA
ATOM     28  HG1 THR A   4      28.521  27.691 -12.345  0.00  0.00    +0.210 HD
ENDBRANCH  25  27
ENDBRANCH   6  25
ENDBRANCH   4   6
ENDBRANCH   1   2
BRANCH   1  30
ATOM     29  C   VAL A   2      22.807  28.751  -8.962  0.00  0.00    +0.241 C 
ATOM     30  N   TYR A   3      23.480  27.908  -8.160  0.00  0.00    -0.297 N 
ATOM     31  H   TYR A   3      22.995  27.483  -7.344  0.00  0.00    +0.150 HD
ATOM     32  O   VAL A   2      23.335  29.342  -9.878  0.00  0.00    -0.273 OA
BRANCH  29  33
ATOM     33  CA  VAL A   2      21.319  28.987  -8.665  0.00  0.00    +0.148 C 
BRANCH  33  36
ATOM     34  C   SER A   1      21.096  31.075  -7.460  0.00  0.00    +0.241 C 
ATOM     35  O   SER A   1      21.511  30.547  -6.443  0.00  0.00    -0.274 OA
ATOM     36  N   VAL A   2      20.995  30.411  -8.613  0.00  0.00    -0.297 N 
ATOM     37  H   VAL A   2      20.686  30.906  -9.474  0.00  0.00    +0.150 HD
BRANCH  34  38
ATOM     38  CA  SER A   1      20.658  32.539  -7.431  0.00  0.00    +0.174 C 
BRANCH  38  39
ATOM     39  N   SER A   1      20.691  33.130  -8.757  0.00  0.00    -0.236 NA
ATOM     40  H   SER A   1      20.411  32.547  -9.571  0.00  0.00    +0.142 HD
ENDBRANCH  38  39
BRANCH  38  41
ATOM     41  CB  SER A   1      19.255  32.627  -6.858  0.00  0.00    +0.163 C 
BRANCH  41  42
ATOM     42  OG  SER A   1      18.399  31.834  -7.668  0.00  0.00    -0.380 OA
ATOM     43  H   SER A   1      17.476  31.877  -7.312  0.00  0.00    +0.211 HD
ENDBRANCH  41  42
ENDBRANCH  38  41
ENDBRANCH  34  38
ENDBRANCH  33  36
BRANCH  33  44
ATOM     44  CB  VAL A   2      20.436  28.254  -9.693  0.00  0.00    +0.027 C 
ATOM     45  CG2 VAL A   2      18.997  28.281  -9.211  0.00  0.00    +0.002 C 
ATOM     46  CG1 VAL A   2      20.908  26.794  -9.896  0.00  0.00    +0.002 C 
ENDBRANCH  33  44
ENDBRANCH  29  33
ENDBRANCH   1  30
BRANCH   1  47
ATOM     47  CB  TYR A   3      25.465  26.674  -7.327  0.00  0.00    +0.055 C 
BRANCH  47  48
ATOM     48  CG  TYR A   3      25.318  27.216  -5.940  0.00  0.00    -0.020 A 
ATOM     49  CD2 TYR A   3      25.034  26.363  -4.877  0.00  0.00    -0.001 A 
ATOM     50  CE2 TYR A   3      24.896  26.837  -3.571  0.00  0.00    +0.036 A 
ATOM     51  CZ  TYR A   3      25.055  28.196  -3.327  0.00  0.00    +0.134 A 
ATOM     52  CE1 TYR A   3      25.354  29.068  -4.378  0.00  0.00    +0.036 A 
ATOM     53  CD1 TYR A   3      25.479  28.574  -5.678  0.00  0.00    -0.001 A 
BRANCH  51  54
ATOM     54  OH  TYR A   3      24.922  28.697  -2.044  0.00  0.00    -0.506 OA
ATOM     55  HH  TYR A   3      25.067  29.676  -2.057  0.00  0.00    +0.292 HD
ENDBRANCH  51  54
ENDBRANCH  47  48
ENDBRANCH   1  47
TORSDOF 21
REMARK  Name = ../refined-set-2016/4n6g/4n6g_pocket.pdb
REMARK  79 active torsions:
REMARK  status: ('A' for Active; 'I' for Inactive)
REMARK    1  A    between atoms: _1  and  _3
REMARK    2  A    between atoms: _3  and  _4
REMARK    3  A    between atoms: _6  and  _8
REMARK    4  A    between atoms: _8  and  _9
REMARK    5  A    between atoms: _8  and  _11
REMARK    6  A    between atoms: _11  and  _12
REMARK    7  A    between atoms: _17  and  _19
REMARK    8  A    between atoms: _19  and  _20
REMARK    9  A    between atoms: _19  and  _22
REMARK   10  A    between atoms: _22  and  _23
REMARK   11  A    between atoms: _23  and  _24
REMARK   12  A    between atoms: _29  and  _31
REMARK   13  A    between atoms: _31  and  _32
REMARK   14  A    between atoms: _31  and  _34
REMARK   15  A    between atoms: _34  and  _35
REMARK   16  A    between atoms: _37  and  _39
REMARK   17  A    between atoms: _39  and  _40
REMARK   18  A    between atoms: _39  and  _42
REMARK   19  A    between atoms: _45  and  _47
REMARK   20  A    between atoms: _47  and  _48
REMARK   21  A    between atoms: _47  and  _50
REMARK   22  A    between atoms: _50  and  _51
REMARK   23  A    between atoms: _56  and  _57
REMARK   24  A    between atoms: _59  and  _61
REMARK   25  A    between atoms: _61  and  _62
REMARK   26  A    between atoms: _61  and  _64
REMARK   27  A    between atoms: _64  and  _65
REMARK   28  A    between atoms: _68  and  _70
REMARK   29  A    between atoms: _70  and  _71
REMARK   30  A    between atoms: _70  and  _73
REMARK   31  A    between atoms: _73  and  _74
REMARK   32  A    between atoms: _78  and  _79
REMARK   33  A    between atoms: _84  and  _86
REMARK   34  A    between atoms: _86  and  _87
REMARK   35  A    between atoms: _86  and  _89
REMARK   36  A    between atoms: _89  and  _90
REMARK   37  A    between atoms: _90  and  _91
REMARK   38  A    between atoms: _94  and  _96
REMARK   39  A    between atoms: _96  and  _97
REMARK   40  A    between atoms: _99  and  _101
REMARK   41  A    between atoms: _101  and  _102
REMARK   42  A    between atoms: _101  and  _104
REMARK   43  A    between atoms: _104  and  _105
REMARK   44  A    between atoms: _110  and  _112
REMARK   45  A    between atoms: _112  and  _113
REMARK   46  A    between atoms: _112  and  _115
REMARK   47  A    between atoms: _115  and  _116
REMARK   48  A    between atoms: _116  and  _117
REMARK   49  A    between atoms: _120  and  _122
REMARK   50  A    between atoms: _122  and  _123
REMARK   51  A    between atoms: _122  and  _125
REMARK   52  A    between atoms: _125  and  _126
REMARK   53  A    between atoms: _126  and  _127
REMARK   54  A    between atoms: _132  and  _134
REMARK   55  A    between atoms: _134  and  _135
REMARK   56  A    between atoms: _134  and  _137
REMARK   57  A    between atoms: _137  and  _138
REMARK   58  A    between atoms: _140  and  _142
REMARK   59  A    between atoms: _142  and  _143
REMARK   60  A    between atoms: _142  and  _145
REMARK   61  A    between atoms: _148  and  _150
REMARK   62  A    between atoms: _150  and  _151
REMARK   63  A    between atoms: _150  and  _153
REMARK   64  A    between atoms: _153  and  _154
REMARK   65  A    between atoms: _159  and  _160
REMARK   66  A    between atoms: _162  and  _164
REMARK   67  A    between atoms: _164  and  _165
REMARK   68  A    between atoms: _164  and  _167
REMARK   69  A    between atoms: _167  and  _168
REMARK   70  A    between atoms: _171  and  _173
REMARK   71  A    between atoms: _173  and  _174
REMARK   72  A    between atoms: _173  and  _176
REMARK   73  A    between atoms: _176  and  _177
REMARK   74  A    between atoms: _181  and  _182
REMARK   75  A    between atoms: _187  and  _189
REMARK   76  A    between atoms: _189  and  _190
REMARK   77  A    between atoms: _189  and  _192
REMARK   78  A    between atoms: _192  and  _193
REMARK   79  A    between atoms: _193  and  _194
REMARK                            x       y       z     vdW  Elec       q    Type
REMARK                         _______ _______ _______ _____ _____    ______ ____
ROOT
ATOM      1  CA  GLU A   1      26.327  34.641 -10.488  0.00  0.00    +0.134 C 
ENDROOT
BRANCH   1   2
ATOM      2  N   GLU A   1      26.313  33.833 -11.698  0.00  0.00    -0.239 NA
ATOM      3  H   GLU A   1      26.891  32.969 -11.725  0.00  0.00    +0.142 HD
ENDBRANCH   1   2
BRANCH   1   4
ATOM      4  C   GLU A   1      26.735  36.071 -10.833  0.00  0.00    +0.224 C 
ATOM      5  O   GLU A   1      27.687  36.272 -11.587  0.00  0.00    -0.287 OA
ENDBRANCH   1   4
BRANCH   1   6
ATOM      6  CB  GLU A   1      27.316  34.039  -9.451  0.00  0.00    +0.037 C 
BRANCH   6   7
ATOM      7  CG  GLU A   1      27.428  34.777  -8.074  0.00  0.00    +0.116 C 
BRANCH   7   8
ATOM      8  CD  GLU A   1      28.267  36.085  -8.103  0.00  0.00    +0.365 C 
ATOM      9  OE2 GLU A   1      27.980  37.018  -7.314  0.00  0.00    -0.246 OA
ATOM     10  OE1 GLU A   1      29.199  36.197  -8.936  0.00  0.00    -0.246 OA
ENDBRANCH   7   8
ENDBRANCH   6   7
ENDBRANCH   1   6
TORSDOF 5
REMARK  Name = ../refined-set-2016/4n6g/4n6g_pocket.pdb
REMARK  79 active torsions:
REMARK  status: ('A' for Active; 'I' for Inactive)
REMARK    1  A    between atoms: _1  and  _3
REMARK    2  A    between atoms: _3  and  _4
REMARK    3  A    between atoms: _6  and  _8
REMARK    4  A    between atoms: _8  and  _9
REMARK    5  A    between atoms: _8  and  _11
REMARK    6  A    between atoms: _11  and  _12
REMARK    7  A    between atoms: _17  and  _19
REMARK    8  A    between atoms: _19  and  _20
REMARK    9  A    between atoms: _19  and  _22
REMARK   10  A    between atoms: _22  and  _23
REMARK   11  A    between atoms: _23  and  _24
REMARK   12  A    between atoms: _29  and  _31
REMARK   13  A    between atoms: _31  and  _32
REMARK   14  A    between atoms: _31  and  _34
REMARK   15  A    between atoms: _34  and  _35
REMARK   16  A    between atoms: _37  and  _39
REMARK   17  A    between atoms: _39  and  _40
REMARK   18  A    between atoms: _39  and  _42
REMARK   19  A    between atoms: _45  and  _47
REMARK   20  A    between atoms: _47  and  _48
REMARK   21  A    between atoms: _47  and  _50
REMARK   22  A    between atoms: _50  and  _51
REMARK   23  A    between atoms: _56  and  _57
REMARK   24  A    between atoms: _59  and  _61
REMARK   25  A    between atoms: _61  and  _62
REMARK   26  A    between atoms: _61  and  _64
REMARK   27  A    between atoms: _64  and  _65
REMARK   28  A    between atoms: _68  and  _70
REMARK   29  A    between atoms: _70  and  _71
REMARK   30  A    between atoms: _70  and  _73
REMARK   31  A    between atoms: _73  and  _74
REMARK   32  A    between atoms: _78  and  _79
REMARK   33  A    between atoms: _84  and  _86
REMARK   34  A    between atoms: _86  and  _87
REMARK   35  A    between atoms: _86  and  _89
REMARK   36  A    between atoms: _89  and  _90
REMARK   37  A    between atoms: _90  and  _91
REMARK   38  A    between atoms: _94  and  _96
REMARK   39  A    between atoms: _96  and  _97
REMARK   40  A    between atoms: _99  and  _101
REMARK   41  A    between atoms: _101  and  _102
REMARK   42  A    between atoms: _101  and  _104
REMARK   43  A    between atoms: _104  and  _105
REMARK   44  A    between atoms: _110  and  _112
REMARK   45  A    between atoms: _112  and  _113
REMARK   46  A    between atoms: _112  and  _115
REMARK   47  A    between atoms: _115  and  _116
REMARK   48  A    between atoms: _116  and  _117
REMARK   49  A    between atoms: _120  and  _122
REMARK   50  A    between atoms: _122  and  _123
REMARK   51  A    between atoms: _122  and  _125
REMARK   52  A    between atoms: _125  and  _126
REMARK   53  A    between atoms: _126  and  _127
REMARK   54  A    between atoms: _132  and  _134
REMARK   55  A    between atoms: _134  and  _135
REMARK   56  A    between atoms: _134  and  _137
REMARK   57  A    between atoms: _137  and  _138
REMARK   58  A    between atoms: _140  and  _142
REMARK   59  A    between atoms: _142  and  _143
REMARK   60  A    between atoms: _142  and  _145
REMARK   61  A    between atoms: _148  and  _150
REMARK   62  A    between atoms: _150  and  _151
REMARK   63  A    between atoms: _150  and  _153
REMARK   64  A    between atoms: _153  and  _154
REMARK   65  A    between atoms: _159  and  _160
REMARK   66  A    between atoms: _162  and  _164
REMARK   67  A    between atoms: _164  and  _165
REMARK   68  A    between atoms: _164  and  _167
REMARK   69  A    between atoms: _167  and  _168
REMARK   70  A    between atoms: _171  and  _173
REMARK   71  A    between atoms: _173  and  _174
REMARK   72  A    between atoms: _173  and  _176
REMARK   73  A    between atoms: _176  and  _177
REMARK   74  A    between atoms: _181  and  _182
REMARK   75  A    between atoms: _187  and  _189
REMARK   76  A    between atoms: _189  and  _190
REMARK   77  A    between atoms: _189  and  _192
REMARK   78  A    between atoms: _192  and  _193
REMARK   79  A    between atoms: _193  and  _194
REMARK                            x       y       z     vdW  Elec       q    Type
REMARK                         _______ _______ _______ _____ _____    ______ ____
ROOT
ATOM      1  CA  ASN A   2      35.490  29.560  -3.279  0.00  0.00    +0.146 C 
ENDROOT
BRANCH   1   3
ATOM      2  C   GLY A   1      35.375  27.153  -2.738  0.00  0.00    +0.240 C 
ATOM      3  N   ASN A   2      35.173  28.425  -2.378  0.00  0.00    -0.298 N 
ATOM      4  H   ASN A   2      34.781  28.625  -1.436  0.00  0.00    +0.150 HD
ATOM      5  O   GLY A   1      35.832  26.846  -3.831  0.00  0.00    -0.274 OA
BRANCH   2   6
ATOM      6  CA  GLY A   1      35.037  26.066  -1.720  0.00  0.00    +0.169 C 
BRANCH   6   7
ATOM      7  N   GLY A   1      36.221  25.301  -1.334  0.00  0.00    -0.236 NA
ATOM      8  H   GLY A   1      36.201  24.264  -1.413  0.00  0.00    +0.142 HD
ENDBRANCH   6   7
ENDBRANCH   2   6
ENDBRANCH   1   3
BRANCH   1   9
ATOM      9  C   ASN A   2      36.950  30.052  -3.187  0.00  0.00    +0.227 C 
ATOM     10  O   ASN A   2      37.307  31.064  -3.790  0.00  0.00    -0.286 OA
ENDBRANCH   1   9
BRANCH   1  11
ATOM     11  CB  ASN A   2      34.580  30.746  -2.946  0.00  0.00    +0.112 C 
BRANCH  11  12
ATOM     12  CG  ASN A   2      33.134  30.434  -3.163  0.00  0.00    +0.222 C 
ATOM     13  ND2 ASN A   2      32.338  30.492  -2.094  0.00  0.00    -0.329 N 
ATOM     14 HD21 ASN A   2      32.723  30.787  -1.174  0.00  0.00    +0.145 HD
ATOM     15 HD22 ASN A   2      31.332  30.243  -2.181  0.00  0.00    +0.145 HD
ATOM     16  OD1 ASN A   2      32.739  30.094  -4.275  0.00  0.00    -0.275 OA
ENDBRANCH  11  12
ENDBRANCH   1  11
TORSDOF 6
REMARK  Name = ../refined-set-2016/4n6g/4n6g_pocket.pdb
REMARK  79 active torsions:
REMARK  status: ('A' for Active; 'I' for Inactive)
REMARK    1  A    between atoms: _1  and  _3
REMARK    2  A    between atoms: _3  and  _4
REMARK    3  A    between atoms: _6  and  _8
REMARK    4  A    between atoms: _8  and  _9
REMARK    5  A    between atoms: _8  and  _11
REMARK    6  A    between atoms: _11  and  _12
REMARK    7  A    between atoms: _17  and  _19
REMARK    8  A    between atoms: _19  and  _20
REMARK    9  A    between atoms: _19  and  _22
REMARK   10  A    between atoms: _22  and  _23
REMARK   11  A    between atoms: _23  and  _24
REMARK   12  A    between atoms: _29  and  _31
REMARK   13  A    between atoms: _31  and  _32
REMARK   14  A    between atoms: _31  and  _34
REMARK   15  A    between atoms: _34  and  _35
REMARK   16  A    between atoms: _37  and  _39
REMARK   17  A    between atoms: _39  and  _40
REMARK   18  A    between atoms: _39  and  _42
REMARK   19  A    between atoms: _45  and  _47
REMARK   20  A    between atoms: _47  and  _48
REMARK   21  A    between atoms: _47  and  _50
REMARK   22  A    between atoms: _50  and  _51
REMARK   23  A    between atoms: _56  and  _57
REMARK   24  A    between atoms: _59  and  _61
REMARK   25  A    between atoms: _61  and  _62
REMARK   26  A    between atoms: _61  and  _64
REMARK   27  A    between atoms: _64  and  _65
REMARK   28  A    between atoms: _68  and  _70
REMARK   29  A    between atoms: _70  and  _71
REMARK   30  A    between atoms: _70  and  _73
REMARK   31  A    between atoms: _73  and  _74
REMARK   32  A    between atoms: _78  and  _79
REMARK   33  A    between atoms: _84  and  _86
REMARK   34  A    between atoms: _86  and  _87
REMARK   35  A    between atoms: _86  and  _89
REMARK   36  A    between atoms: _89  and  _90
REMARK   37  A    between atoms: _90  and  _91
REMARK   38  A    between atoms: _94  and  _96
REMARK   39  A    between atoms: _96  and  _97
REMARK   40  A    between atoms: _99  and  _101
REMARK   41  A    between atoms: _101  and  _102
REMARK   42  A    between atoms: _101  and  _104
REMARK   43  A    between atoms: _104  and  _105
REMARK   44  A    between atoms: _110  and  _112
REMARK   45  A    between atoms: _112  and  _113
REMARK   46  A    between atoms: _112  and  _115
REMARK   47  A    between atoms: _115  and  _116
REMARK   48  A    between atoms: _116  and  _117
REMARK   49  A    between atoms: _120  and  _122
REMARK   50  A    between atoms: _122  and  _123
REMARK   51  A    between atoms: _122  and  _125
REMARK   52  A    between atoms: _125  and  _126
REMARK   53  A    between atoms: _126  and  _127
REMARK   54  A    between atoms: _132  and  _134
REMARK   55  A    between atoms: _134  and  _135
REMARK   56  A    between atoms: _134  and  _137
REMARK   57  A    between atoms: _137  and  _138
REMARK   58  A    between atoms: _140  and  _142
REMARK   59  A    between atoms: _142  and  _143
REMARK   60  A    between atoms: _142  and  _145
REMARK   61  A    between atoms: _148  and  _150
REMARK   62  A    between atoms: _150  and  _151
REMARK   63  A    between atoms: _150  and  _153
REMARK   64  A    between atoms: _153  and  _154
REMARK   65  A    between atoms: _159  and  _160
REMARK   66  A    between atoms: _162  and  _164
REMARK   67  A    between atoms: _164  and  _165
REMARK   68  A    between atoms: _164  and  _167
REMARK   69  A    between atoms: _167  and  _168
REMARK   70  A    between atoms: _171  and  _173
REMARK   71  A    between atoms: _173  and  _174
REMARK   72  A    between atoms: _173  and  _176
REMARK   73  A    between atoms: _176  and  _177
REMARK   74  A    between atoms: _181  and  _182
REMARK   75  A    between atoms: _187  and  _189
REMARK   76  A    between atoms: _189  and  _190
REMARK   77  A    between atoms: _189  and  _192
REMARK   78  A    between atoms: _192  and  _193
REMARK   79  A    between atoms: _193  and  _194
REMARK                            x       y       z     vdW  Elec       q    Type
REMARK                         _______ _______ _______ _____ _____    ______ ____
ROOT
ATOM      1  CA  GLU A   1      38.715  34.238  -3.016  0.00  0.00    +0.134 C 
ENDROOT
BRANCH   1   2
ATOM      2  N   GLU A   1      39.921  34.524  -2.229  0.00  0.00    -0.239 NA
ATOM      3  H   GLU A   1      39.989  35.420  -1.705  0.00  0.00    +0.142 HD
ENDBRANCH   1   2
BRANCH   1   4
ATOM      4  C   GLU A   1      38.959  34.312  -4.502  0.00  0.00    +0.224 C 
ATOM      5  O   GLU A   1      39.436  35.333  -4.988  0.00  0.00    -0.287 OA
ENDBRANCH   1   4
BRANCH   1   6
ATOM      6  CB  GLU A   1      37.579  35.214  -2.712  0.00  0.00    +0.037 C 
BRANCH   6   7
ATOM      7  CG  GLU A   1      36.703  34.852  -1.592  0.00  0.00    +0.116 C 
BRANCH   7   8
ATOM      8  CD  GLU A   1      35.432  35.696  -1.593  0.00  0.00    +0.365 C 
ATOM      9  OE2 GLU A   1      34.338  35.132  -1.380  0.00  0.00    -0.246 OA
ATOM     10  OE1 GLU A   1      35.526  36.924  -1.785  0.00  0.00    -0.246 OA
ENDBRANCH   7   8
ENDBRANCH   6   7
ENDBRANCH   1   6
TORSDOF 5
REMARK  Name = ../refined-set-2016/4n6g/4n6g_pocket.pdb
REMARK  79 active torsions:
REMARK  status: ('A' for Active; 'I' for Inactive)
REMARK    1  A    between atoms: _1  and  _3
REMARK    2  A    between atoms: _3  and  _4
REMARK    3  A    between atoms: _6  and  _8
REMARK    4  A    between atoms: _8  and  _9
REMARK    5  A    between atoms: _8  and  _11
REMARK    6  A    between atoms: _11  and  _12
REMARK    7  A    between atoms: _17  and  _19
REMARK    8  A    between atoms: _19  and  _20
REMARK    9  A    between atoms: _19  and  _22
REMARK   10  A    between atoms: _22  and  _23
REMARK   11  A    between atoms: _23  and  _24
REMARK   12  A    between atoms: _29  and  _31
REMARK   13  A    between atoms: _31  and  _32
REMARK   14  A    between atoms: _31  and  _34
REMARK   15  A    between atoms: _34  and  _35
REMARK   16  A    between atoms: _37  and  _39
REMARK   17  A    between atoms: _39  and  _40
REMARK   18  A    between atoms: _39  and  _42
REMARK   19  A    between atoms: _45  and  _47
REMARK   20  A    between atoms: _47  and  _48
REMARK   21  A    between atoms: _47  and  _50
REMARK   22  A    between atoms: _50  and  _51
REMARK   23  A    between atoms: _56  and  _57
REMARK   24  A    between atoms: _59  and  _61
REMARK   25  A    between atoms: _61  and  _62
REMARK   26  A    between atoms: _61  and  _64
REMARK   27  A    between atoms: _64  and  _65
REMARK   28  A    between atoms: _68  and  _70
REMARK   29  A    between atoms: _70  and  _71
REMARK   30  A    between atoms: _70  and  _73
REMARK   31  A    between atoms: _73  and  _74
REMARK   32  A    between atoms: _78  and  _79
REMARK   33  A    between atoms: _84  and  _86
REMARK   34  A    between atoms: _86  and  _87
REMARK   35  A    between atoms: _86  and  _89
REMARK   36  A    between atoms: _89  and  _90
REMARK   37  A    between atoms: _90  and  _91
REMARK   38  A    between atoms: _94  and  _96
REMARK   39  A    between atoms: _96  and  _97
REMARK   40  A    between atoms: _99  and  _101
REMARK   41  A    between atoms: _101  and  _102
REMARK   42  A    between atoms: _101  and  _104
REMARK   43  A    between atoms: _104  and  _105
REMARK   44  A    between atoms: _110  and  _112
REMARK   45  A    between atoms: _112  and  _113
REMARK   46  A    between atoms: _112  and  _115
REMARK   47  A    between atoms: _115  and  _116
REMARK   48  A    between atoms: _116  and  _117
REMARK   49  A    between atoms: _120  and  _122
REMARK   50  A    between atoms: _122  and  _123
REMARK   51  A    between atoms: _122  and  _125
REMARK   52  A    between atoms: _125  and  _126
REMARK   53  A    between atoms: _126  and  _127
REMARK   54  A    between atoms: _132  and  _134
REMARK   55  A    between atoms: _134  and  _135
REMARK   56  A    between atoms: _134  and  _137
REMARK   57  A    between atoms: _137  and  _138
REMARK   58  A    between atoms: _140  and  _142
REMARK   59  A    between atoms: _142  and  _143
REMARK   60  A    between atoms: _142  and  _145
REMARK   61  A    between atoms: _148  and  _150
REMARK   62  A    between atoms: _150  and  _151
REMARK   63  A    between atoms: _150  and  _153
REMARK   64  A    between atoms: _153  and  _154
REMARK   65  A    between atoms: _159  and  _160
REMARK   66  A    between atoms: _162  and  _164
REMARK   67  A    between atoms: _164  and  _165
REMARK   68  A    between atoms: _164  and  _167
REMARK   69  A    between atoms: _167  and  _168
REMARK   70  A    between atoms: _171  and  _173
REMARK   71  A    between atoms: _173  and  _174
REMARK   72  A    between atoms: _173  and  _176
REMARK   73  A    between atoms: _176  and  _177
REMARK   74  A    between atoms: _181  and  _182
REMARK   75  A    between atoms: _187  and  _189
REMARK   76  A    between atoms: _189  and  _190
REMARK   77  A    between atoms: _189  and  _192
REMARK   78  A    between atoms: _192  and  _193
REMARK   79  A    between atoms: _193  and  _194
REMARK                            x       y       z     vdW  Elec       q    Type
REMARK                         _______ _______ _______ _____ _____    ______ ____
ROOT
ATOM      1  CB  GLN A   1      34.706  36.055  -6.667  0.00  0.00    +0.035 C 
ENDROOT
BRANCH   1   2
ATOM      2  CA  GLN A   1      36.048  35.879  -7.387  0.00  0.00    +0.134 C 
BRANCH   2   3
ATOM      3  N   GLN A   1      36.792  34.729  -6.833  0.00  0.00    -0.239 NA
ATOM      4  H   GLN A   1      36.375  34.179  -6.055  0.00  0.00    +0.142 HD
ENDBRANCH   2   3
BRANCH   2   5
ATOM      5  C   GLN A   1      36.814  37.203  -7.297  0.00  0.00    +0.224 C 
ATOM      6  O   GLN A   1      36.716  38.059  -8.178  0.00  0.00    -0.287 OA
ENDBRANCH   2   5
ENDBRANCH   1   2
BRANCH   1   7
ATOM      7  CG  GLN A   1      33.698  34.978  -6.986  0.00  0.00    +0.087 C 
BRANCH   7   8
ATOM      8  CD  GLN A   1      33.790  33.747  -6.051  0.00  0.00    +0.219 C 
ATOM      9  OE1 GLN A   1      34.813  33.503  -5.391  0.00  0.00    -0.275 OA
ATOM     10  NE2 GLN A   1      32.722  32.956  -6.026  0.00  0.00    -0.329 N 
ATOM     11 HE21 GLN A   1      32.724  32.098  -5.439  0.00  0.00    +0.145 HD
ATOM     12 HE22 GLN A   1      31.884  33.195  -6.594  0.00  0.00    +0.145 HD
ENDBRANCH   7   8
ENDBRANCH   1   7
TORSDOF 5
REMARK  Name = ../refined-set-2016/4n6g/4n6g_pocket.pdb
REMARK  79 active torsions:
REMARK  status: ('A' for Active; 'I' for Inactive)
REMARK    1  A    between atoms: _1  and  _3
REMARK    2  A    between atoms: _3  and  _4
REMARK    3  A    between atoms: _6  and  _8
REMARK    4  A    between atoms: _8  and  _9
REMARK    5  A    between atoms: _8  and  _11
REMARK    6  A    between atoms: _11  and  _12
REMARK    7  A    between atoms: _17  and  _19
REMARK    8  A    between atoms: _19  and  _20
REMARK    9  A    between atoms: _19  and  _22
REMARK   10  A    between atoms: _22  and  _23
REMARK   11  A    between atoms: _23  and  _24
REMARK   12  A    between atoms: _29  and  _31
REMARK   13  A    between atoms: _31  and  _32
REMARK   14  A    between atoms: _31  and  _34
REMARK   15  A    between atoms: _34  and  _35
REMARK   16  A    between atoms: _37  and  _39
REMARK   17  A    between atoms: _39  and  _40
REMARK   18  A    between atoms: _39  and  _42
REMARK   19  A    between atoms: _45  and  _47
REMARK   20  A    between atoms: _47  and  _48
REMARK   21  A    between atoms: _47  and  _50
REMARK   22  A    between atoms: _50  and  _51
REMARK   23  A    between atoms: _56  and  _57
REMARK   24  A    between atoms: _59  and  _61
REMARK   25  A    between atoms: _61  and  _62
REMARK   26  A    between atoms: _61  and  _64
REMARK   27  A    between atoms: _64  and  _65
REMARK   28  A    between atoms: _68  and  _70
REMARK   29  A    between atoms: _70  and  _71
REMARK   30  A    between atoms: _70  and  _73
REMARK   31  A    between atoms: _73  and  _74
REMARK   32  A    between atoms: _78  and  _79
REMARK   33  A    between atoms: _84  and  _86
REMARK   34  A    between atoms: _86  and  _87
REMARK   35  A    between atoms: _86  and  _89
REMARK   36  A    between atoms: _89  and  _90
REMARK   37  A    between atoms: _90  and  _91
REMARK   38  A    between atoms: _94  and  _96
REMARK   39  A    between atoms: _96  and  _97
REMARK   40  A    between atoms: _99  and  _101
REMARK   41  A    between atoms: _101  and  _102
REMARK   42  A    between atoms: _101  and  _104
REMARK   43  A    between atoms: _104  and  _105
REMARK   44  A    between atoms: _110  and  _112
REMARK   45  A    between atoms: _112  and  _113
REMARK   46  A    between atoms: _112  and  _115
REMARK   47  A    between atoms: _115  and  _116
REMARK   48  A    between atoms: _116  and  _117
REMARK   49  A    between atoms: _120  and  _122
REMARK   50  A    between atoms: _122  and  _123
REMARK   51  A    between atoms: _122  and  _125
REMARK   52  A    between atoms: _125  and  _126
REMARK   53  A    between atoms: _126  and  _127
REMARK   54  A    between atoms: _132  and  _134
REMARK   55  A    between atoms: _134  and  _135
REMARK   56  A    between atoms: _134  and  _137
REMARK   57  A    between atoms: _137  and  _138
REMARK   58  A    between atoms: _140  and  _142
REMARK   59  A    between atoms: _142  and  _143
REMARK   60  A    between atoms: _142  and  _145
REMARK   61  A    between atoms: _148  and  _150
REMARK   62  A    between atoms: _150  and  _151
REMARK   63  A    between atoms: _150  and  _153
REMARK   64  A    between atoms: _153  and  _154
REMARK   65  A    between atoms: _159  and  _160
REMARK   66  A    between atoms: _162  and  _164
REMARK   67  A    between atoms: _164  and  _165
REMARK   68  A    between atoms: _164  and  _167
REMARK   69  A    between atoms: _167  and  _168
REMARK   70  A    between atoms: _171  and  _173
REMARK   71  A    between atoms: _173  and  _174
REMARK   72  A    between atoms: _173  and  _176
REMARK   73  A    between atoms: _176  and  _177
REMARK   74  A    between atoms: _181  and  _182
REMARK   75  A    between atoms: _187  and  _189
REMARK   76  A    between atoms: _189  and  _190
REMARK   77  A    between atoms: _189  and  _192
REMARK   78  A    between atoms: _192  and  _193
REMARK   79  A    between atoms: _193  and  _194
REMARK                            x       y       z     vdW  Elec       q    Type
REMARK                         _______ _______ _______ _____ _____    ______ ____
ROOT
ATOM      1  CA  TYR A   3      33.377  25.080  -6.505  0.00  0.00    +0.153 C 
ENDROOT
BRANCH   1   3
ATOM      2  C   VAL A   2      35.515  23.971  -5.953  0.00  0.00    +0.241 C 
ATOM      3  N   TYR A   3      34.596  24.908  -5.692  0.00  0.00    -0.297 N 
ATOM      4  H   TYR A   3      34.748  25.542  -4.882  0.00  0.00    +0.150 HD
ATOM      5  O   VAL A   2      35.414  23.140  -6.854  0.00  0.00    -0.273 OA
BRANCH   2   6
ATOM      6  CA  VAL A   2      36.743  23.973  -5.063  0.00  0.00    +0.148 C 
BRANCH   6   9
ATOM      7  C   SER A   1      36.445  22.241  -3.374  0.00  0.00    +0.241 C 
ATOM      8  O   SER A   1      35.704  22.963  -2.715  0.00  0.00    -0.274 OA
ATOM      9  N   VAL A   2      36.979  22.627  -4.524  0.00  0.00    -0.297 N 
ATOM     10  H   VAL A   2      37.577  21.963  -5.056  0.00  0.00    +0.150 HD
BRANCH   7  11
ATOM     11  CA  SER A   1      36.844  20.853  -2.857  0.00  0.00    +0.174 C 
BRANCH  11  12
ATOM     12  N   SER A   1      37.287  19.951  -3.944  0.00  0.00    -0.236 NA
ATOM     13  H   SER A   1      37.824  20.336  -4.747  0.00  0.00    +0.142 HD
ENDBRANCH  11  12
BRANCH  11  14
ATOM     14  CB  SER A   1      37.953  21.015  -1.809  0.00  0.00    +0.163 C 
BRANCH  14  15
ATOM     15  OG  SER A   1      39.064  21.649  -2.434  0.00  0.00    -0.380 OA
ATOM     16  H   SER A   1      39.792  21.763  -1.773  0.00  0.00    +0.211 HD
ENDBRANCH  14  15
ENDBRANCH  11  14
ENDBRANCH   7  11
ENDBRANCH   6   9
BRANCH   6  17
ATOM     17  CB  VAL A   2      37.975  24.528  -5.853  0.00  0.00    +0.027 C 
ATOM     18  CG2 VAL A   2      39.162  24.802  -4.908  0.00  0.00    +0.002 C 
ATOM     19  CG1 VAL A   2      37.609  25.791  -6.614  0.00  0.00    +0.002 C 
ENDBRANCH   6  17
ENDBRANCH   2   6
ENDBRANCH   1   3
BRANCH   1  20
ATOM     20  C   TYR A   3      33.743  25.421  -7.938  0.00  0.00    +0.241 C 
ATOM     21  O   TYR A   3      34.529  26.330  -8.206  0.00  0.00    -0.273 OA
ATOM     22  N   THR A   4      33.159  24.685  -8.860  0.00  0.00    -0.295 N 
ATOM     23  H   THR A   4      32.466  23.962  -8.581  0.00  0.00    +0.150 HD
BRANCH  22  24
ATOM     24  CA  THR A   4      33.473  24.874 -10.253  0.00  0.00    +0.176 C 
BRANCH  24  25
ATOM     25  C   THR A   4      32.559  25.938 -10.808  0.00  0.00    +0.243 C 
ATOM     26  N   LEU A   5      32.848  27.190 -10.465  0.00  0.00    -0.297 N 
ATOM     27  H   LEU A   5      33.683  27.361  -9.869  0.00  0.00    +0.150 HD
ATOM     28  O   THR A   4      31.649  25.632 -11.542  0.00  0.00    -0.273 OA
BRANCH  26  29
ATOM     29  CA  LEU A   5      32.055  28.324 -10.882  0.00  0.00    +0.149 C 
BRANCH  29  30
ATOM     30  C   LEU A   5      32.547  29.078 -12.158  0.00  0.00    +0.244 C 
ATOM     31  O   LEU A   5      33.702  28.988 -12.563  0.00  0.00    -0.273 OA
ATOM     32  N   PRO A   6      31.636  29.798 -12.820  0.00  0.00    -0.273 N 
ATOM     33  CD  PRO A   6      30.247  30.012 -12.401  0.00  0.00    +0.094 C 
ATOM     34  CG  PRO A   6      29.619  30.585 -13.622  0.00  0.00    +0.024 C 
ATOM     35  CB  PRO A   6      30.642  30.756 -14.676  0.00  0.00    +0.030 C 
ATOM     36  CA  PRO A   6      31.955  30.682 -13.932  0.00  0.00    +0.140 C 
BRANCH  36  37
ATOM     37  C   PRO A   6      32.390  32.050 -13.399  0.00  0.00    +0.227 C 
ATOM     38  O   PRO A   6      32.555  32.170 -12.184  0.00  0.00    -0.286 OA
ENDBRANCH  36  37
ENDBRANCH  29  30
BRANCH  29  39
ATOM     39  CB  LEU A   5      31.975  29.289  -9.713  0.00  0.00    +0.029 C 
BRANCH  39  40
ATOM     40  CG  LEU A   5      31.249  28.686  -8.515  0.00  0.00    +0.002 C 
ATOM     41  CD2 LEU A   5      31.262  29.744  -7.447  0.00  0.00    +0.000 C 
ATOM     42  CD1 LEU A   5      29.805  28.168  -8.860  0.00  0.00    +0.000 C 
ENDBRANCH  39  40
ENDBRANCH  29  39
ENDBRANCH  26  29
ENDBRANCH  24  25
BRANCH  24  43
ATOM     43  CB  THR A   4      33.332  23.551 -11.033  0.00  0.00    +0.137 C 
ATOM     44  CG2 THR A   4      34.339  22.511 -10.539  0.00  0.00    +0.034 C 
BRANCH  43  45
ATOM     45  OG1 THR A   4      32.052  23.021 -10.741  0.00  0.00    -0.382 OA
ATOM     46  HG1 THR A   4      31.357  23.666 -11.024  0.00  0.00    +0.210 HD
ENDBRANCH  43  45
ENDBRANCH  24  43
ENDBRANCH  22  24
ENDBRANCH   1  20
BRANCH   1  47
ATOM     47  CB  TYR A   3      32.494  26.173  -5.940  0.00  0.00    +0.055 C 
BRANCH  47  48
ATOM     48  CG  TYR A   3      32.160  25.954  -4.492  0.00  0.00    -0.020 A 
ATOM     49  CD2 TYR A   3      32.093  27.013  -3.622  0.00  0.00    -0.001 A 
ATOM     50  CE2 TYR A   3      31.764  26.828  -2.282  0.00  0.00    +0.036 A 
ATOM     51  CZ  TYR A   3      31.537  25.558  -1.804  0.00  0.00    +0.134 A 
ATOM     52  CE1 TYR A   3      31.619  24.465  -2.659  0.00  0.00    +0.036 A 
ATOM     53  CD1 TYR A   3      31.929  24.669  -3.994  0.00  0.00    -0.001 A 
BRANCH  51  54
ATOM     54  OH  TYR A   3      31.231  25.402  -0.466  0.00  0.00    -0.506 OA
ATOM     55  HH  TYR A   3      31.095  24.441  -0.270  0.00  0.00    +0.292 HD
ENDBRANCH  51  54
ENDBRANCH  47  48
ENDBRANCH   1  47
TORSDOF 21
REMARK  Name = ../refined-set-2016/4n6g/4n6g_pocket.pdb
REMARK  79 active torsions:
REMARK  status: ('A' for Active; 'I' for Inactive)
REMARK    1  A    between atoms: _1  and  _3
REMARK    2  A    between atoms: _3  and  _4
REMARK    3  A    between atoms: _6  and  _8
REMARK    4  A    between atoms: _8  and  _9
REMARK    5  A    between atoms: _8  and  _11
REMARK    6  A    between atoms: _11  and  _12
REMARK    7  A    between atoms: _17  and  _19
REMARK    8  A    between atoms: _19  and  _20
REMARK    9  A    between atoms: _19  and  _22
REMARK   10  A    between atoms: _22  and  _23
REMARK   11  A    between atoms: _23  and  _24
REMARK   12  A    between atoms: _29  and  _31
REMARK   13  A    between atoms: _31  and  _32
REMARK   14  A    between atoms: _31  and  _34
REMARK   15  A    between atoms: _34  and  _35
REMARK   16  A    between atoms: _37  and  _39
REMARK   17  A    between atoms: _39  and  _40
REMARK   18  A    between atoms: _39  and  _42
REMARK   19  A    between atoms: _45  and  _47
REMARK   20  A    between atoms: _47  and  _48
REMARK   21  A    between atoms: _47  and  _50
REMARK   22  A    between atoms: _50  and  _51
REMARK   23  A    between atoms: _56  and  _57
REMARK   24  A    between atoms: _59  and  _61
REMARK   25  A    between atoms: _61  and  _62
REMARK   26  A    between atoms: _61  and  _64
REMARK   27  A    between atoms: _64  and  _65
REMARK   28  A    between atoms: _68  and  _70
REMARK   29  A    between atoms: _70  and  _71
REMARK   30  A    between atoms: _70  and  _73
REMARK   31  A    between atoms: _73  and  _74
REMARK   32  A    between atoms: _78  and  _79
REMARK   33  A    between atoms: _84  and  _86
REMARK   34  A    between atoms: _86  and  _87
REMARK   35  A    between atoms: _86  and  _89
REMARK   36  A    between atoms: _89  and  _90
REMARK   37  A    between atoms: _90  and  _91
REMARK   38  A    between atoms: _94  and  _96
REMARK   39  A    between atoms: _96  and  _97
REMARK   40  A    between atoms: _99  and  _101
REMARK   41  A    between atoms: _101  and  _102
REMARK   42  A    between atoms: _101  and  _104
REMARK   43  A    between atoms: _104  and  _105
REMARK   44  A    between atoms: _110  and  _112
REMARK   45  A    between atoms: _112  and  _113
REMARK   46  A    between atoms: _112  and  _115
REMARK   47  A    between atoms: _115  and  _116
REMARK   48  A    between atoms: _116  and  _117
REMARK   49  A    between atoms: _120  and  _122
REMARK   50  A    between atoms: _122  and  _123
REMARK   51  A    between atoms: _122  and  _125
REMARK   52  A    between atoms: _125  and  _126
REMARK   53  A    between atoms: _126  and  _127
REMARK   54  A    between atoms: _132  and  _134
REMARK   55  A    between atoms: _134  and  _135
REMARK   56  A    between atoms: _134  and  _137
REMARK   57  A    between atoms: _137  and  _138
REMARK   58  A    between atoms: _140  and  _142
REMARK   59  A    between atoms: _142  and  _143
REMARK   60  A    between atoms: _142  and  _145
REMARK   61  A    between atoms: _148  and  _150
REMARK   62  A    between atoms: _150  and  _151
REMARK   63  A    between atoms: _150  and  _153
REMARK   64  A    between atoms: _153  and  _154
REMARK   65  A    between atoms: _159  and  _160
REMARK   66  A    between atoms: _162  and  _164
REMARK   67  A    between atoms: _164  and  _165
REMARK   68  A    between atoms: _164  and  _167
REMARK   69  A    between atoms: _167  and  _168
REMARK   70  A    between atoms: _171  and  _173
REMARK   71  A    between atoms: _173  and  _174
REMARK   72  A    between atoms: _173  and  _176
REMARK   73  A    between atoms: _176  and  _177
REMARK   74  A    between atoms: _181  and  _182
REMARK   75  A    between atoms: _187  and  _189
REMARK   76  A    between atoms: _189  and  _190
REMARK   77  A    between atoms: _189  and  _192
REMARK   78  A    between atoms: _192  and  _193
REMARK   79  A    between atoms: _193  and  _194
REMARK                            x       y       z     vdW  Elec       q    Type
REMARK                         _______ _______ _______ _____ _____    ______ ____
ROOT
ATOM      1  CA  GLU A   1      32.560  17.675  -7.023  0.00  0.00    +0.134 C 
ENDROOT
BRANCH   1   2
ATOM      2  N   GLU A   1      33.029  18.149  -8.319  0.00  0.00    -0.239 NA
ATOM      3  H   GLU A   1      32.551  18.961  -8.759  0.00  0.00    +0.142 HD
ENDBRANCH   1   2
BRANCH   1   4
ATOM      4  C   GLU A   1      32.236  16.192  -7.161  0.00  0.00    +0.224 C 
ATOM      5  O   GLU A   1      31.737  15.767  -8.192  0.00  0.00    -0.287 OA
ENDBRANCH   1   4
BRANCH   1   6
ATOM      6  CB  GLU A   1      31.310  18.448  -6.561  0.00  0.00    +0.037 C 
BRANCH   6   7
ATOM      7  CG  GLU A   1      30.843  18.109  -5.121  0.00  0.00    +0.116 C 
BRANCH   7   8
ATOM      8  CD  GLU A   1      30.158  16.745  -4.964  0.00  0.00    +0.365 C 
ATOM      9  OE2 GLU A   1      30.271  16.116  -3.876  0.00  0.00    -0.246 OA
ATOM     10  OE1 GLU A   1      29.485  16.302  -5.910  0.00  0.00    -0.246 OA
ENDBRANCH   7   8
ENDBRANCH   6   7
ENDBRANCH   1   6
TORSDOF 5
REMARK  Name = ../refined-set-2016/4n6g/4n6g_pocket.pdb
REMARK  79 active torsions:
REMARK  status: ('A' for Active; 'I' for Inactive)
REMARK    1  A    between atoms: _1  and  _3
REMARK    2  A    between atoms: _3  and  _4
REMARK    3  A    between atoms: _6  and  _8
REMARK    4  A    between atoms: _8  and  _9
REMARK    5  A    between atoms: _8  and  _11
REMARK    6  A    between atoms: _11  and  _12
REMARK    7  A    between atoms: _17  and  _19
REMARK    8  A    between atoms: _19  and  _20
REMARK    9  A    between atoms: _19  and  _22
REMARK   10  A    between atoms: _22  and  _23
REMARK   11  A    between atoms: _23  and  _24
REMARK   12  A    between atoms: _29  and  _31
REMARK   13  A    between atoms: _31  and  _32
REMARK   14  A    between atoms: _31  and  _34
REMARK   15  A    between atoms: _34  and  _35
REMARK   16  A    between atoms: _37  and  _39
REMARK   17  A    between atoms: _39  and  _40
REMARK   18  A    between atoms: _39  and  _42
REMARK   19  A    between atoms: _45  and  _47
REMARK   20  A    between atoms: _47  and  _48
REMARK   21  A    between atoms: _47  and  _50
REMARK   22  A    between atoms: _50  and  _51
REMARK   23  A    between atoms: _56  and  _57
REMARK   24  A    between atoms: _59  and  _61
REMARK   25  A    between atoms: _61  and  _62
REMARK   26  A    between atoms: _61  and  _64
REMARK   27  A    between atoms: _64  and  _65
REMARK   28  A    between atoms: _68  and  _70
REMARK   29  A    between atoms: _70  and  _71
REMARK   30  A    between atoms: _70  and  _73
REMARK   31  A    between atoms: _73  and  _74
REMARK   32  A    between atoms: _78  and  _79
REMARK   33  A    between atoms: _84  and  _86
REMARK   34  A    between atoms: _86  and  _87
REMARK   35  A    between atoms: _86  and  _89
REMARK   36  A    between atoms: _89  and  _90
REMARK   37  A    between atoms: _90  and  _91
REMARK   38  A    between atoms: _94  and  _96
REMARK   39  A    between atoms: _96  and  _97
REMARK   40  A    between atoms: _99  and  _101
REMARK   41  A    between atoms: _101  and  _102
REMARK   42  A    between atoms: _101  and  _104
REMARK   43  A    between atoms: _104  and  _105
REMARK   44  A    between atoms: _110  and  _112
REMARK   45  A    between atoms: _112  and  _113
REMARK   46  A    between atoms: _112  and  _115
REMARK   47  A    between atoms: _115  and  _116
REMARK   48  A    between atoms: _116  and  _117
REMARK   49  A    between atoms: _120  and  _122
REMARK   50  A    between atoms: _122  and  _123
REMARK   51  A    between atoms: _122  and  _125
REMARK   52  A    between atoms: _125  and  _126
REMARK   53  A    between atoms: _126  and  _127
REMARK   54  A    between atoms: _132  and  _134
REMARK   55  A    between atoms: _134  and  _135
REMARK   56  A    between atoms: _134  and  _137
REMARK   57  A    between atoms: _137  and  _138
REMARK   58  A    between atoms: _140  and  _142
REMARK   59  A    between atoms: _142  and  _143
REMARK   60  A    between atoms: _142  and  _145
REMARK   61  A    between atoms: _148  and  _150
REMARK   62  A    between atoms: _150  and  _151
REMARK   63  A    between atoms: _150  and  _153
REMARK   64  A    between atoms: _153  and  _154
REMARK   65  A    between atoms: _159  and  _160
REMARK   66  A    between atoms: _162  and  _164
REMARK   67  A    between atoms: _164  and  _165
REMARK   68  A    between atoms: _164  and  _167
REMARK   69  A    between atoms: _167  and  _168
REMARK   70  A    between atoms: _171  and  _173
REMARK   71  A    between atoms: _173  and  _174
REMARK   72  A    between atoms: _173  and  _176
REMARK   73  A    between atoms: _176  and  _177
REMARK   74  A    between atoms: _181  and  _182
REMARK   75  A    between atoms: _187  and  _189
REMARK   76  A    between atoms: _189  and  _190
REMARK   77  A    between atoms: _189  and  _192
REMARK   78  A    between atoms: _192  and  _193
REMARK   79  A    between atoms: _193  and  _194
REMARK                            x       y       z     vdW  Elec       q    Type
REMARK                         _______ _______ _______ _____ _____    ______ ____
ROOT
ATOM      1  O   HOH     1      23.561  22.633  -9.884  0.00  0.00    +0.000 OA
ENDROOT
TORSDOF 0
REMARK  Name = ../refined-set-2016/4n6g/4n6g_pocket.pdb
REMARK  79 active torsions:
REMARK  status: ('A' for Active; 'I' for Inactive)
REMARK    1  A    between atoms: _1  and  _3
REMARK    2  A    between atoms: _3  and  _4
REMARK    3  A    between atoms: _6  and  _8
REMARK    4  A    between atoms: _8  and  _9
REMARK    5  A    between atoms: _8  and  _11
REMARK    6  A    between atoms: _11  and  _12
REMARK    7  A    between atoms: _17  and  _19
REMARK    8  A    between atoms: _19  and  _20
REMARK    9  A    between atoms: _19  and  _22
REMARK   10  A    between atoms: _22  and  _23
REMARK   11  A    between atoms: _23  and  _24
REMARK   12  A    between atoms: _29  and  _31
REMARK   13  A    between atoms: _31  and  _32
REMARK   14  A    between atoms: _31  and  _34
REMARK   15  A    between atoms: _34  and  _35
REMARK   16  A    between atoms: _37  and  _39
REMARK   17  A    between atoms: _39  and  _40
REMARK   18  A    between atoms: _39  and  _42
REMARK   19  A    between atoms: _45  and  _47
REMARK   20  A    between atoms: _47  and  _48
REMARK   21  A    between atoms: _47  and  _50
REMARK   22  A    between atoms: _50  and  _51
REMARK   23  A    between atoms: _56  and  _57
REMARK   24  A    between atoms: _59  and  _61
REMARK   25  A    between atoms: _61  and  _62
REMARK   26  A    between atoms: _61  and  _64
REMARK   27  A    between atoms: _64  and  _65
REMARK   28  A    between atoms: _68  and  _70
REMARK   29  A    between atoms: _70  and  _71
REMARK   30  A    between atoms: _70  and  _73
REMARK   31  A    between atoms: _73  and  _74
REMARK   32  A    between atoms: _78  and  _79
REMARK   33  A    between atoms: _84  and  _86
REMARK   34  A    between atoms: _86  and  _87
REMARK   35  A    between atoms: _86  and  _89
REMARK   36  A    between atoms: _89  and  _90
REMARK   37  A    between atoms: _90  and  _91
REMARK   38  A    between atoms: _94  and  _96
REMARK   39  A    between atoms: _96  and  _97
REMARK   40  A    between atoms: _99  and  _101
REMARK   41  A    between atoms: _101  and  _102
REMARK   42  A    between atoms: _101  and  _104
REMARK   43  A    between atoms: _104  and  _105
REMARK   44  A    between atoms: _110  and  _112
REMARK   45  A    between atoms: _112  and  _113
REMARK   46  A    between atoms: _112  and  _115
REMARK   47  A    between atoms: _115  and  _116
REMARK   48  A    between atoms: _116  and  _117
REMARK   49  A    between atoms: _120  and  _122
REMARK   50  A    between atoms: _122  and  _123
REMARK   51  A    between atoms: _122  and  _125
REMARK   52  A    between atoms: _125  and  _126
REMARK   53  A    between atoms: _126  and  _127
REMARK   54  A    between atoms: _132  and  _134
REMARK   55  A    between atoms: _134  and  _135
REMARK   56  A    between atoms: _134  and  _137
REMARK   57  A    between atoms: _137  and  _138
REMARK   58  A    between atoms: _140  and  _142
REMARK   59  A    between atoms: _142  and  _143
REMARK   60  A    between atoms: _142  and  _145
REMARK   61  A    between atoms: _148  and  _150
REMARK   62  A    between atoms: _150  and  _151
REMARK   63  A    between atoms: _150  and  _153
REMARK   64  A    between atoms: _153  and  _154
REMARK   65  A    between atoms: _159  and  _160
REMARK   66  A    between atoms: _162  and  _164
REMARK   67  A    between atoms: _164  and  _165
REMARK   68  A    between atoms: _164  and  _167
REMARK   69  A    between atoms: _167  and  _168
REMARK   70  A    between atoms: _171  and  _173
REMARK   71  A    between atoms: _173  and  _174
REMARK   72  A    between atoms: _173  and  _176
REMARK   73  A    between atoms: _176  and  _177
REMARK   74  A    between atoms: _181  and  _182
REMARK   75  A    between atoms: _187  and  _189
REMARK   76  A    between atoms: _189  and  _190
REMARK   77  A    between atoms: _189  and  _192
REMARK   78  A    between atoms: _192  and  _193
REMARK   79  A    between atoms: _193  and  _194
REMARK                            x       y       z     vdW  Elec       q    Type
REMARK                         _______ _______ _______ _____ _____    ______ ____
ROOT
ATOM      1  O   HOH     1      33.549  33.549   0.000  0.00  0.00    +0.000 OA
ENDROOT
TORSDOF 0
REMARK  Name = ../refined-set-2016/4n6g/4n6g_pocket.pdb
REMARK  79 active torsions:
REMARK  status: ('A' for Active; 'I' for Inactive)
REMARK    1  A    between atoms: _1  and  _3
REMARK    2  A    between atoms: _3  and  _4
REMARK    3  A    between atoms: _6  and  _8
REMARK    4  A    between atoms: _8  and  _9
REMARK    5  A    between atoms: _8  and  _11
REMARK    6  A    between atoms: _11  and  _12
REMARK    7  A    between atoms: _17  and  _19
REMARK    8  A    between atoms: _19  and  _20
REMARK    9  A    between atoms: _19  and  _22
REMARK   10  A    between atoms: _22  and  _23
REMARK   11  A    between atoms: _23  and  _24
REMARK   12  A    between atoms: _29  and  _31
REMARK   13  A    between atoms: _31  and  _32
REMARK   14  A    between atoms: _31  and  _34
REMARK   15  A    between atoms: _34  and  _35
REMARK   16  A    between atoms: _37  and  _39
REMARK   17  A    between atoms: _39  and  _40
REMARK   18  A    between atoms: _39  and  _42
REMARK   19  A    between atoms: _45  and  _47
REMARK   20  A    between atoms: _47  and  _48
REMARK   21  A    between atoms: _47  and  _50
REMARK   22  A    between atoms: _50  and  _51
REMARK   23  A    between atoms: _56  and  _57
REMARK   24  A    between atoms: _59  and  _61
REMARK   25  A    between atoms: _61  and  _62
REMARK   26  A    between atoms: _61  and  _64
REMARK   27  A    between atoms: _64  and  _65
REMARK   28  A    between atoms: _68  and  _70
REMARK   29  A    between atoms: _70  and  _71
REMARK   30  A    between atoms: _70  and  _73
REMARK   31  A    between atoms: _73  and  _74
REMARK   32  A    between atoms: _78  and  _79
REMARK   33  A    between atoms: _84  and  _86
REMARK   34  A    between atoms: _86  and  _87
REMARK   35  A    between atoms: _86  and  _89
REMARK   36  A    between atoms: _89  and  _90
REMARK   37  A    between atoms: _90  and  _91
REMARK   38  A    between atoms: _94  and  _96
REMARK   39  A    between atoms: _96  and  _97
REMARK   40  A    between atoms: _99  and  _101
REMARK   41  A    between atoms: _101  and  _102
REMARK   42  A    between atoms: _101  and  _104
REMARK   43  A    between atoms: _104  and  _105
REMARK   44  A    between atoms: _110  and  _112
REMARK   45  A    between atoms: _112  and  _113
REMARK   46  A    between atoms: _112  and  _115
REMARK   47  A    between atoms: _115  and  _116
REMARK   48  A    between atoms: _116  and  _117
REMARK   49  A    between atoms: _120  and  _122
REMARK   50  A    between atoms: _122  and  _123
REMARK   51  A    between atoms: _122  and  _125
REMARK   52  A    between atoms: _125  and  _126
REMARK   53  A    between atoms: _126  and  _127
REMARK   54  A    between atoms: _132  and  _134
REMARK   55  A    between atoms: _134  and  _135
REMARK   56  A    between atoms: _134  and  _137
REMARK   57  A    between atoms: _137  and  _138
REMARK   58  A    between atoms: _140  and  _142
REMARK   59  A    between atoms: _142  and  _143
REMARK   60  A    between atoms: _142  and  _145
REMARK   61  A    between atoms: _148  and  _150
REMARK   62  A    between atoms: _150  and  _151
REMARK   63  A    between atoms: _150  and  _153
REMARK   64  A    between atoms: _153  and  _154
REMARK   65  A    between atoms: _159  and  _160
REMARK   66  A    between atoms: _162  and  _164
REMARK   67  A    between atoms: _164  and  _165
REMARK   68  A    between atoms: _164  and  _167
REMARK   69  A    between atoms: _167  and  _168
REMARK   70  A    between atoms: _171  and  _173
REMARK   71  A    between atoms: _173  and  _174
REMARK   72  A    between atoms: _173  and  _176
REMARK   73  A    between atoms: _176  and  _177
REMARK   74  A    between atoms: _181  and  _182
REMARK   75  A    between atoms: _187  and  _189
REMARK   76  A    between atoms: _189  and  _190
REMARK   77  A    between atoms: _189  and  _192
REMARK   78  A    between atoms: _192  and  _193
REMARK   79  A    between atoms: _193  and  _194
REMARK                            x       y       z     vdW  Elec       q    Type
REMARK                         _______ _______ _______ _____ _____    ______ ____
ROOT
ATOM      1  O   HOH     1      34.546  28.781   0.595  0.00  0.00    +0.000 OA
ENDROOT
TORSDOF 0
REMARK  Name = ../refined-set-2016/4n6g/4n6g_pocket.pdb
REMARK  79 active torsions:
REMARK  status: ('A' for Active; 'I' for Inactive)
REMARK    1  A    between atoms: _1  and  _3
REMARK    2  A    between atoms: _3  and  _4
REMARK    3  A    between atoms: _6  and  _8
REMARK    4  A    between atoms: _8  and  _9
REMARK    5  A    between atoms: _8  and  _11
REMARK    6  A    between atoms: _11  and  _12
REMARK    7  A    between atoms: _17  and  _19
REMARK    8  A    between atoms: _19  and  _20
REMARK    9  A    between atoms: _19  and  _22
REMARK   10  A    between atoms: _22  and  _23
REMARK   11  A    between atoms: _23  and  _24
REMARK   12  A    between atoms: _29  and  _31
REMARK   13  A    between atoms: _31  and  _32
REMARK   14  A    between atoms: _31  and  _34
REMARK   15  A    between atoms: _34  and  _35
REMARK   16  A    between atoms: _37  and  _39
REMARK   17  A    between atoms: _39  and  _40
REMARK   18  A    between atoms: _39  and  _42
REMARK   19  A    between atoms: _45  and  _47
REMARK   20  A    between atoms: _47  and  _48
REMARK   21  A    between atoms: _47  and  _50
REMARK   22  A    between atoms: _50  and  _51
REMARK   23  A    between atoms: _56  and  _57
REMARK   24  A    between atoms: _59  and  _61
REMARK   25  A    between atoms: _61  and  _62
REMARK   26  A    between atoms: _61  and  _64
REMARK   27  A    between atoms: _64  and  _65
REMARK   28  A    between atoms: _68  and  _70
REMARK   29  A    between atoms: _70  and  _71
REMARK   30  A    between atoms: _70  and  _73
REMARK   31  A    between atoms: _73  and  _74
REMARK   32  A    between atoms: _78  and  _79
REMARK   33  A    between atoms: _84  and  _86
REMARK   34  A    between atoms: _86  and  _87
REMARK   35  A    between atoms: _86  and  _89
REMARK   36  A    between atoms: _89  and  _90
REMARK   37  A    between atoms: _90  and  _91
REMARK   38  A    between atoms: _94  and  _96
REMARK   39  A    between atoms: _96  and  _97
REMARK   40  A    between atoms: _99  and  _101
REMARK   41  A    between atoms: _101  and  _102
REMARK   42  A    between atoms: _101  and  _104
REMARK   43  A    between atoms: _104  and  _105
REMARK   44  A    between atoms: _110  and  _112
REMARK   45  A    between atoms: _112  and  _113
REMARK   46  A    between atoms: _112  and  _115
REMARK   47  A    between atoms: _115  and  _116
REMARK   48  A    between atoms: _116  and  _117
REMARK   49  A    between atoms: _120  and  _122
REMARK   50  A    between atoms: _122  and  _123
REMARK   51  A    between atoms: _122  and  _125
REMARK   52  A    between atoms: _125  and  _126
REMARK   53  A    between atoms: _126  and  _127
REMARK   54  A    between atoms: _132  and  _134
REMARK   55  A    between atoms: _134  and  _135
REMARK   56  A    between atoms: _134  and  _137
REMARK   57  A    between atoms: _137  and  _138
REMARK   58  A    between atoms: _140  and  _142
REMARK   59  A    between atoms: _142  and  _143
REMARK   60  A    between atoms: _142  and  _145
REMARK   61  A    between atoms: _148  and  _150
REMARK   62  A    between atoms: _150  and  _151
REMARK   63  A    between atoms: _150  and  _153
REMARK   64  A    between atoms: _153  and  _154
REMARK   65  A    between atoms: _159  and  _160
REMARK   66  A    between atoms: _162  and  _164
REMARK   67  A    between atoms: _164  and  _165
REMARK   68  A    between atoms: _164  and  _167
REMARK   69  A    between atoms: _167  and  _168
REMARK   70  A    between atoms: _171  and  _173
REMARK   71  A    between atoms: _173  and  _174
REMARK   72  A    between atoms: _173  and  _176
REMARK   73  A    between atoms: _176  and  _177
REMARK   74  A    between atoms: _181  and  _182
REMARK   75  A    between atoms: _187  and  _189
REMARK   76  A    between atoms: _189  and  _190
REMARK   77  A    between atoms: _189  and  _192
REMARK   78  A    between atoms: _192  and  _193
REMARK   79  A    between atoms: _193  and  _194
REMARK                            x       y       z     vdW  Elec       q    Type
REMARK                         _______ _______ _______ _____ _____    ______ ____
ROOT
ATOM      1  O   HOH     1      31.887  20.408  -9.152  0.00  0.00    +0.000 OA
ENDROOT
TORSDOF 0
REMARK  Name = ../refined-set-2016/4n6g/4n6g_pocket.pdb
REMARK  79 active torsions:
REMARK  status: ('A' for Active; 'I' for Inactive)
REMARK    1  A    between atoms: _1  and  _3
REMARK    2  A    between atoms: _3  and  _4
REMARK    3  A    between atoms: _6  and  _8
REMARK    4  A    between atoms: _8  and  _9
REMARK    5  A    between atoms: _8  and  _11
REMARK    6  A    between atoms: _11  and  _12
REMARK    7  A    between atoms: _17  and  _19
REMARK    8  A    between atoms: _19  and  _20
REMARK    9  A    between atoms: _19  and  _22
REMARK   10  A    between atoms: _22  and  _23
REMARK   11  A    between atoms: _23  and  _24
REMARK   12  A    between atoms: _29  and  _31
REMARK   13  A    between atoms: _31  and  _32
REMARK   14  A    between atoms: _31  and  _34
REMARK   15  A    between atoms: _34  and  _35
REMARK   16  A    between atoms: _37  and  _39
REMARK   17  A    between atoms: _39  and  _40
REMARK   18  A    between atoms: _39  and  _42
REMARK   19  A    between atoms: _45  and  _47
REMARK   20  A    between atoms: _47  and  _48
REMARK   21  A    between atoms: _47  and  _50
REMARK   22  A    between atoms: _50  and  _51
REMARK   23  A    between atoms: _56  and  _57
REMARK   24  A    between atoms: _59  and  _61
REMARK   25  A    between atoms: _61  and  _62
REMARK   26  A    between atoms: _61  and  _64
REMARK   27  A    between atoms: _64  and  _65
REMARK   28  A    between atoms: _68  and  _70
REMARK   29  A    between atoms: _70  and  _71
REMARK   30  A    between atoms: _70  and  _73
REMARK   31  A    between atoms: _73  and  _74
REMARK   32  A    between atoms: _78  and  _79
REMARK   33  A    between atoms: _84  and  _86
REMARK   34  A    between atoms: _86  and  _87
REMARK   35  A    between atoms: _86  and  _89
REMARK   36  A    between atoms: _89  and  _90
REMARK   37  A    between atoms: _90  and  _91
REMARK   38  A    between atoms: _94  and  _96
REMARK   39  A    between atoms: _96  and  _97
REMARK   40  A    between atoms: _99  and  _101
REMARK   41  A    between atoms: _101  and  _102
REMARK   42  A    between atoms: _101  and  _104
REMARK   43  A    between atoms: _104  and  _105
REMARK   44  A    between atoms: _110  and  _112
REMARK   45  A    between atoms: _112  and  _113
REMARK   46  A    between atoms: _112  and  _115
REMARK   47  A    between atoms: _115  and  _116
REMARK   48  A    between atoms: _116  and  _117
REMARK   49  A    between atoms: _120  and  _122
REMARK   50  A    between atoms: _122  and  _123
REMARK   51  A    between atoms: _122  and  _125
REMARK   52  A    between atoms: _125  and  _126
REMARK   53  A    between atoms: _126  and  _127
REMARK   54  A    between atoms: _132  and  _134
REMARK   55  A    between atoms: _134  and  _135
REMARK   56  A    between atoms: _134  and  _137
REMARK   57  A    between atoms: _137  and  _138
REMARK   58  A    between atoms: _140  and  _142
REMARK   59  A    between atoms: _142  and  _143
REMARK   60  A    between atoms: _142  and  _145
REMARK   61  A    between atoms: _148  and  _150
REMARK   62  A    between atoms: _150  and  _151
REMARK   63  A    between atoms: _150  and  _153
REMARK   64  A    between atoms: _153  and  _154
REMARK   65  A    between atoms: _159  and  _160
REMARK   66  A    between atoms: _162  and  _164
REMARK   67  A    between atoms: _164  and  _165
REMARK   68  A    between atoms: _164  and  _167
REMARK   69  A    between atoms: _167  and  _168
REMARK   70  A    between atoms: _171  and  _173
REMARK   71  A    between atoms: _173  and  _174
REMARK   72  A    between atoms: _173  and  _176
REMARK   73  A    between atoms: _176  and  _177
REMARK   74  A    between atoms: _181  and  _182
REMARK   75  A    between atoms: _187  and  _189
REMARK   76  A    between atoms: _189  and  _190
REMARK   77  A    between atoms: _189  and  _192
REMARK   78  A    between atoms: _192  and  _193
REMARK   79  A    between atoms: _193  and  _194
REMARK                            x       y       z     vdW  Elec       q    Type
REMARK                         _______ _______ _______ _____ _____    ______ ____
ROOT
ATOM      1  O   HOH     1      33.381  19.740  -3.759  0.00  0.00    +0.000 OA
ENDROOT
TORSDOF 0
REMARK  Name = ../refined-set-2016/4n6g/4n6g_pocket.pdb
REMARK  79 active torsions:
REMARK  status: ('A' for Active; 'I' for Inactive)
REMARK    1  A    between atoms: _1  and  _3
REMARK    2  A    between atoms: _3  and  _4
REMARK    3  A    between atoms: _6  and  _8
REMARK    4  A    between atoms: _8  and  _9
REMARK    5  A    between atoms: _8  and  _11
REMARK    6  A    between atoms: _11  and  _12
REMARK    7  A    between atoms: _17  and  _19
REMARK    8  A    between atoms: _19  and  _20
REMARK    9  A    between atoms: _19  and  _22
REMARK   10  A    between atoms: _22  and  _23
REMARK   11  A    between atoms: _23  and  _24
REMARK   12  A    between atoms: _29  and  _31
REMARK   13  A    between atoms: _31  and  _32
REMARK   14  A    between atoms: _31  and  _34
REMARK   15  A    between atoms: _34  and  _35
REMARK   16  A    between atoms: _37  and  _39
REMARK   17  A    between atoms: _39  and  _40
REMARK   18  A    between atoms: _39  and  _42
REMARK   19  A    between atoms: _45  and  _47
REMARK   20  A    between atoms: _47  and  _48
REMARK   21  A    between atoms: _47  and  _50
REMARK   22  A    between atoms: _50  and  _51
REMARK   23  A    between atoms: _56  and  _57
REMARK   24  A    between atoms: _59  and  _61
REMARK   25  A    between atoms: _61  and  _62
REMARK   26  A    between atoms: _61  and  _64
REMARK   27  A    between atoms: _64  and  _65
REMARK   28  A    between atoms: _68  and  _70
REMARK   29  A    between atoms: _70  and  _71
REMARK   30  A    between atoms: _70  and  _73
REMARK   31  A    between atoms: _73  and  _74
REMARK   32  A    between atoms: _78  and  _79
REMARK   33  A    between atoms: _84  and  _86
REMARK   34  A    between atoms: _86  and  _87
REMARK   35  A    between atoms: _86  and  _89
REMARK   36  A    between atoms: _89  and  _90
REMARK   37  A    between atoms: _90  and  _91
REMARK   38  A    between atoms: _94  and  _96
REMARK   39  A    between atoms: _96  and  _97
REMARK   40  A    between atoms: _99  and  _101
REMARK   41  A    between atoms: _101  and  _102
REMARK   42  A    between atoms: _101  and  _104
REMARK   43  A    between atoms: _104  and  _105
REMARK   44  A    between atoms: _110  and  _112
REMARK   45  A    between atoms: _112  and  _113
REMARK   46  A    between atoms: _112  and  _115
REMARK   47  A    between atoms: _115  and  _116
REMARK   48  A    between atoms: _116  and  _117
REMARK   49  A    between atoms: _120  and  _122
REMARK   50  A    between atoms: _122  and  _123
REMARK   51  A    between atoms: _122  and  _125
REMARK   52  A    between atoms: _125  and  _126
REMARK   53  A    between atoms: _126  and  _127
REMARK   54  A    between atoms: _132  and  _134
REMARK   55  A    between atoms: _134  and  _135
REMARK   56  A    between atoms: _134  and  _137
REMARK   57  A    between atoms: _137  and  _138
REMARK   58  A    between atoms: _140  and  _142
REMARK   59  A    between atoms: _142  and  _143
REMARK   60  A    between atoms: _142  and  _145
REMARK   61  A    between atoms: _148  and  _150
REMARK   62  A    between atoms: _150  and  _151
REMARK   63  A    between atoms: _150  and  _153
REMARK   64  A    between atoms: _153  and  _154
REMARK   65  A    between atoms: _159  and  _160
REMARK   66  A    between atoms: _162  and  _164
REMARK   67  A    between atoms: _164  and  _165
REMARK   68  A    between atoms: _164  and  _167
REMARK   69  A    between atoms: _167  and  _168
REMARK   70  A    between atoms: _171  and  _173
REMARK   71  A    between atoms: _173  and  _174
REMARK   72  A    between atoms: _173  and  _176
REMARK   73  A    between atoms: _176  and  _177
REMARK   74  A    between atoms: _181  and  _182
REMARK   75  A    between atoms: _187  and  _189
REMARK   76  A    between atoms: _189  and  _190
REMARK   77  A    between atoms: _189  and  _192
REMARK   78  A    between atoms: _192  and  _193
REMARK   79  A    between atoms: _193  and  _194
REMARK                            x       y       z     vdW  Elec       q    Type
REMARK                         _______ _______ _______ _____ _____    ______ ____
ROOT
ATOM      1  O   HOH     1      33.941  20.933  -5.872  0.00  0.00    +0.000 OA
ENDROOT
TORSDOF 0
REMARK  Name = ../refined-set-2016/4n6g/4n6g_pocket.pdb
REMARK  79 active torsions:
REMARK  status: ('A' for Active; 'I' for Inactive)
REMARK    1  A    between atoms: _1  and  _3
REMARK    2  A    between atoms: _3  and  _4
REMARK    3  A    between atoms: _6  and  _8
REMARK    4  A    between atoms: _8  and  _9
REMARK    5  A    between atoms: _8  and  _11
REMARK    6  A    between atoms: _11  and  _12
REMARK    7  A    between atoms: _17  and  _19
REMARK    8  A    between atoms: _19  and  _20
REMARK    9  A    between atoms: _19  and  _22
REMARK   10  A    between atoms: _22  and  _23
REMARK   11  A    between atoms: _23  and  _24
REMARK   12  A    between atoms: _29  and  _31
REMARK   13  A    between atoms: _31  and  _32
REMARK   14  A    between atoms: _31  and  _34
REMARK   15  A    between atoms: _34  and  _35
REMARK   16  A    between atoms: _37  and  _39
REMARK   17  A    between atoms: _39  and  _40
REMARK   18  A    between atoms: _39  and  _42
REMARK   19  A    between atoms: _45  and  _47
REMARK   20  A    between atoms: _47  and  _48
REMARK   21  A    between atoms: _47  and  _50
REMARK   22  A    between atoms: _50  and  _51
REMARK   23  A    between atoms: _56  and  _57
REMARK   24  A    between atoms: _59  and  _61
REMARK   25  A    between atoms: _61  and  _62
REMARK   26  A    between atoms: _61  and  _64
REMARK   27  A    between atoms: _64  and  _65
REMARK   28  A    between atoms: _68  and  _70
REMARK   29  A    between atoms: _70  and  _71
REMARK   30  A    between atoms: _70  and  _73
REMARK   31  A    between atoms: _73  and  _74
REMARK   32  A    between atoms: _78  and  _79
REMARK   33  A    between atoms: _84  and  _86
REMARK   34  A    between atoms: _86  and  _87
REMARK   35  A    between atoms: _86  and  _89
REMARK   36  A    between atoms: _89  and  _90
REMARK   37  A    between atoms: _90  and  _91
REMARK   38  A    between atoms: _94  and  _96
REMARK   39  A    between atoms: _96  and  _97
REMARK   40  A    between atoms: _99  and  _101
REMARK   41  A    between atoms: _101  and  _102
REMARK   42  A    between atoms: _101  and  _104
REMARK   43  A    between atoms: _104  and  _105
REMARK   44  A    between atoms: _110  and  _112
REMARK   45  A    between atoms: _112  and  _113
REMARK   46  A    between atoms: _112  and  _115
REMARK   47  A    between atoms: _115  and  _116
REMARK   48  A    between atoms: _116  and  _117
REMARK   49  A    between atoms: _120  and  _122
REMARK   50  A    between atoms: _122  and  _123
REMARK   51  A    between atoms: _122  and  _125
REMARK   52  A    between atoms: _125  and  _126
REMARK   53  A    between atoms: _126  and  _127
REMARK   54  A    between atoms: _132  and  _134
REMARK   55  A    between atoms: _134  and  _135
REMARK   56  A    between atoms: _134  and  _137
REMARK   57  A    between atoms: _137  and  _138
REMARK   58  A    between atoms: _140  and  _142
REMARK   59  A    between atoms: _142  and  _143
REMARK   60  A    between atoms: _142  and  _145
REMARK   61  A    between atoms: _148  and  _150
REMARK   62  A    between atoms: _150  and  _151
REMARK   63  A    between atoms: _150  and  _153
REMARK   64  A    between atoms: _153  and  _154
REMARK   65  A    between atoms: _159  and  _160
REMARK   66  A    between atoms: _162  and  _164
REMARK   67  A    between atoms: _164  and  _165
REMARK   68  A    between atoms: _164  and  _167
REMARK   69  A    between atoms: _167  and  _168
REMARK   70  A    between atoms: _171  and  _173
REMARK   71  A    between atoms: _173  and  _174
REMARK   72  A    between atoms: _173  and  _176
REMARK   73  A    between atoms: _176  and  _177
REMARK   74  A    between atoms: _181  and  _182
REMARK   75  A    between atoms: _187  and  _189
REMARK   76  A    between atoms: _189  and  _190
REMARK   77  A    between atoms: _189  and  _192
REMARK   78  A    between atoms: _192  and  _193
REMARK   79  A    between atoms: _193  and  _194
REMARK                            x       y       z     vdW  Elec       q    Type
REMARK                         _______ _______ _______ _____ _____    ______ ____
ROOT
ATOM      1  O   HOH     1      33.575  21.731  -0.991  0.00  0.00    +0.000 OA
ENDROOT
TORSDOF 0
