REMARK  Name = ../refined-set-2016/1alw/1alw_pocket.pdb
REMARK  116 active torsions:
REMARK  status: ('A' for Active; 'I' for Inactive)
REMARK    1  A    between atoms: _1  and  _3
REMARK    2  A    between atoms: _3  and  _4
REMARK    3  A    between atoms: _3  and  _6
REMARK    4  A    between atoms: _6  and  _7
REMARK    5  A    between atoms: _7  and  _8
REMARK    6  A    between atoms: _13  and  _15
REMARK    7  A    between atoms: _15  and  _16
REMARK    8  A    between atoms: _15  and  _18
REMARK    9  A    between atoms: _18  and  _19
REMARK   10  A    between atoms: _22  and  _24
REMARK   11  A    between atoms: _24  and  _25
REMARK   12  A    between atoms: _24  and  _27
REMARK   13  A    between atoms: _27  and  _28
REMARK   14  A    between atoms: _31  and  _33
REMARK   15  A    between atoms: _33  and  _34
REMARK   16  A    between atoms: _33  and  _36
REMARK   17  A    between atoms: _36  and  _37
REMARK   18  A    between atoms: _40  and  _42
REMARK   19  A    between atoms: _42  and  _43
REMARK   20  A    between atoms: _42  and  _45
REMARK   21  A    between atoms: _45  and  _46
REMARK   22  A    between atoms: _46  and  _47
REMARK   23  A    between atoms: _47  and  _48
REMARK   24  A    between atoms: _48  and  _49
REMARK   25  A    between atoms: _53  and  _55
REMARK   26  A    between atoms: _55  and  _56
REMARK   27  A    between atoms: _55  and  _58
REMARK   28  A    between atoms: _61  and  _63
REMARK   29  A    between atoms: _63  and  _64
REMARK   30  A    between atoms: _63  and  _66
REMARK   31  A    between atoms: _69  and  _71
REMARK   32  A    between atoms: _71  and  _72
REMARK   33  A    between atoms: _71  and  _74
REMARK   34  A    between atoms: _74  and  _75
REMARK   35  A    between atoms: _78  and  _80
REMARK   36  A    between atoms: _80  and  _81
REMARK   37  A    between atoms: _80  and  _83
REMARK   38  A    between atoms: _83  and  _84
REMARK   39  A    between atoms: _84  and  _85
REMARK   40  A    between atoms: _85  and  _86
REMARK   41  A    between atoms: _95  and  _97
REMARK   42  A    between atoms: _97  and  _98
REMARK   43  A    between atoms: _97  and  _100
REMARK   44  A    between atoms: _100  and  _101
REMARK   45  A    between atoms: _106  and  _108
REMARK   46  A    between atoms: _108  and  _109
REMARK   47  A    between atoms: _108  and  _111
REMARK   48  A    between atoms: _111  and  _112
REMARK   49  A    between atoms: _115  and  _117
REMARK   50  A    between atoms: _117  and  _118
REMARK   51  A    between atoms: _117  and  _120
REMARK   52  A    between atoms: _120  and  _121
REMARK   53  A    between atoms: _124  and  _126
REMARK   54  A    between atoms: _126  and  _127
REMARK   55  A    between atoms: _126  and  _129
REMARK   56  A    between atoms: _129  and  _130
REMARK   57  A    between atoms: _136  and  _138
REMARK   58  A    between atoms: _138  and  _139
REMARK   59  A    between atoms: _138  and  _141
REMARK   60  A    between atoms: _141  and  _142
REMARK   61  A    between atoms: _145  and  _147
REMARK   62  A    between atoms: _147  and  _148
REMARK   63  A    between atoms: _147  and  _150
REMARK   64  A    between atoms: _150  and  _151
REMARK   65  A    between atoms: _161  and  _163
REMARK   66  A    between atoms: _163  and  _164
REMARK   67  A    between atoms: _163  and  _166
REMARK   68  A    between atoms: _166  and  _167
REMARK   69  A    between atoms: _172  and  _174
REMARK   70  A    between atoms: _174  and  _175
REMARK   71  A    between atoms: _174  and  _177
REMARK   72  A    between atoms: _177  and  _178
REMARK   73  A    between atoms: _183  and  _185
REMARK   74  A    between atoms: _185  and  _186
REMARK   75  A    between atoms: _185  and  _188
REMARK   76  A    between atoms: _188  and  _189
REMARK   77  A    between atoms: _192  and  _194
REMARK   78  A    between atoms: _194  and  _195
REMARK   79  A    between atoms: _194  and  _197
REMARK   80  A    between atoms: _197  and  _198
REMARK   81  A    between atoms: _198  and  _199
REMARK   82  A    between atoms: _199  and  _200
REMARK   83  A    between atoms: _200  and  _201
REMARK   84  A    between atoms: _205  and  _207
REMARK   85  A    between atoms: _207  and  _208
REMARK   86  A    between atoms: _207  and  _210
REMARK   87  A    between atoms: _210  and  _211
REMARK   88  A    between atoms: _211  and  _212
REMARK   89  A    between atoms: _212  and  _213
REMARK   90  A    between atoms: _213  and  _214
REMARK   91  A    between atoms: _218  and  _220
REMARK   92  A    between atoms: _220  and  _221
REMARK   93  A    between atoms: _220  and  _223
REMARK   94  A    between atoms: _223  and  _224
REMARK   95  A    between atoms: _234  and  _236
REMARK   96  A    between atoms: _236  and  _237
REMARK   97  A    between atoms: _236  and  _239
REMARK   98  A    between atoms: _239  and  _240
REMARK   99  A    between atoms: _240  and  _241
REMARK  100  A    between atoms: _246  and  _248
REMARK  101  A    between atoms: _248  and  _249
REMARK  102  A    between atoms: _252  and  _254
REMARK  103  A    between atoms: _254  and  _255
REMARK  104  A    between atoms: _254  and  _257
REMARK  105  A    between atoms: _257  and  _258
REMARK  106  A    between atoms: _258  and  _259
REMARK  107  A    between atoms: _259  and  _260
REMARK  108  A    between atoms: _260  and  _261
REMARK  109  A    between atoms: _265  and  _267
REMARK  110  A    between atoms: _267  and  _268
REMARK  111  A    between atoms: _267  and  _270
REMARK  112  A    between atoms: _270  and  _271
REMARK  113  A    between atoms: _277  and  _279
REMARK  114  A    between atoms: _279  and  _280
REMARK  115  A    between atoms: _279  and  _282
REMARK  116  A    between atoms: _282  and  _283
REMARK                            x       y       z     vdW  Elec       q    Type
REMARK                         _______ _______ _______ _____ _____    ______ ____
ROOT
ATOM      1  CB  GLN A   1       9.973 -49.451  22.527  0.00  0.00    +0.035 C 
ENDROOT
BRANCH   1   2
ATOM      2  CA  GLN A   1       9.011 -48.511  21.811  0.00  0.00    +0.134 C 
BRANCH   2   3
ATOM      3  N   GLN A   1       9.749 -47.820  20.774  0.00  0.00    -0.239 NA
ATOM      4  H   GLN A   1      10.787 -47.875  20.803  0.00  0.00    +0.142 HD
ENDBRANCH   2   3
BRANCH   2   5
ATOM      5  C   GLN A   1       8.403 -47.593  22.812  0.00  0.00    +0.224 C 
ATOM      6  O   GLN A   1       7.359 -47.893  23.395  0.00  0.00    -0.287 OA
ENDBRANCH   2   5
ENDBRANCH   1   2
BRANCH   1   7
ATOM      7  CG  GLN A   1      11.103 -48.725  23.214  0.00  0.00    +0.087 C 
BRANCH   7   8
ATOM      8  CD  GLN A   1      12.082 -49.687  23.879  0.00  0.00    +0.219 C 
ATOM      9  OE1 GLN A   1      12.068 -49.858  25.116  0.00  0.00    -0.275 OA
ATOM     10  NE2 GLN A   1      12.951 -50.323  23.062  0.00  0.00    -0.329 N 
ATOM     11 HE21 GLN A   1      13.646 -50.987  23.458  0.00  0.00    +0.145 HD
ATOM     12 HE22 GLN A   1      12.924 -50.148  22.037  0.00  0.00    +0.145 HD
ENDBRANCH   7   8
ENDBRANCH   1   7
TORSDOF 5
REMARK  Name = ../refined-set-2016/1alw/1alw_pocket.pdb
REMARK  116 active torsions:
REMARK  status: ('A' for Active; 'I' for Inactive)
REMARK    1  A    between atoms: _1  and  _3
REMARK    2  A    between atoms: _3  and  _4
REMARK    3  A    between atoms: _3  and  _6
REMARK    4  A    between atoms: _6  and  _7
REMARK    5  A    between atoms: _7  and  _8
REMARK    6  A    between atoms: _13  and  _15
REMARK    7  A    between atoms: _15  and  _16
REMARK    8  A    between atoms: _15  and  _18
REMARK    9  A    between atoms: _18  and  _19
REMARK   10  A    between atoms: _22  and  _24
REMARK   11  A    between atoms: _24  and  _25
REMARK   12  A    between atoms: _24  and  _27
REMARK   13  A    between atoms: _27  and  _28
REMARK   14  A    between atoms: _31  and  _33
REMARK   15  A    between atoms: _33  and  _34
REMARK   16  A    between atoms: _33  and  _36
REMARK   17  A    between atoms: _36  and  _37
REMARK   18  A    between atoms: _40  and  _42
REMARK   19  A    between atoms: _42  and  _43
REMARK   20  A    between atoms: _42  and  _45
REMARK   21  A    between atoms: _45  and  _46
REMARK   22  A    between atoms: _46  and  _47
REMARK   23  A    between atoms: _47  and  _48
REMARK   24  A    between atoms: _48  and  _49
REMARK   25  A    between atoms: _53  and  _55
REMARK   26  A    between atoms: _55  and  _56
REMARK   27  A    between atoms: _55  and  _58
REMARK   28  A    between atoms: _61  and  _63
REMARK   29  A    between atoms: _63  and  _64
REMARK   30  A    between atoms: _63  and  _66
REMARK   31  A    between atoms: _69  and  _71
REMARK   32  A    between atoms: _71  and  _72
REMARK   33  A    between atoms: _71  and  _74
REMARK   34  A    between atoms: _74  and  _75
REMARK   35  A    between atoms: _78  and  _80
REMARK   36  A    between atoms: _80  and  _81
REMARK   37  A    between atoms: _80  and  _83
REMARK   38  A    between atoms: _83  and  _84
REMARK   39  A    between atoms: _84  and  _85
REMARK   40  A    between atoms: _85  and  _86
REMARK   41  A    between atoms: _95  and  _97
REMARK   42  A    between atoms: _97  and  _98
REMARK   43  A    between atoms: _97  and  _100
REMARK   44  A    between atoms: _100  and  _101
REMARK   45  A    between atoms: _106  and  _108
REMARK   46  A    between atoms: _108  and  _109
REMARK   47  A    between atoms: _108  and  _111
REMARK   48  A    between atoms: _111  and  _112
REMARK   49  A    between atoms: _115  and  _117
REMARK   50  A    between atoms: _117  and  _118
REMARK   51  A    between atoms: _117  and  _120
REMARK   52  A    between atoms: _120  and  _121
REMARK   53  A    between atoms: _124  and  _126
REMARK   54  A    between atoms: _126  and  _127
REMARK   55  A    between atoms: _126  and  _129
REMARK   56  A    between atoms: _129  and  _130
REMARK   57  A    between atoms: _136  and  _138
REMARK   58  A    between atoms: _138  and  _139
REMARK   59  A    between atoms: _138  and  _141
REMARK   60  A    between atoms: _141  and  _142
REMARK   61  A    between atoms: _145  and  _147
REMARK   62  A    between atoms: _147  and  _148
REMARK   63  A    between atoms: _147  and  _150
REMARK   64  A    between atoms: _150  and  _151
REMARK   65  A    between atoms: _161  and  _163
REMARK   66  A    between atoms: _163  and  _164
REMARK   67  A    between atoms: _163  and  _166
REMARK   68  A    between atoms: _166  and  _167
REMARK   69  A    between atoms: _172  and  _174
REMARK   70  A    between atoms: _174  and  _175
REMARK   71  A    between atoms: _174  and  _177
REMARK   72  A    between atoms: _177  and  _178
REMARK   73  A    between atoms: _183  and  _185
REMARK   74  A    between atoms: _185  and  _186
REMARK   75  A    between atoms: _185  and  _188
REMARK   76  A    between atoms: _188  and  _189
REMARK   77  A    between atoms: _192  and  _194
REMARK   78  A    between atoms: _194  and  _195
REMARK   79  A    between atoms: _194  and  _197
REMARK   80  A    between atoms: _197  and  _198
REMARK   81  A    between atoms: _198  and  _199
REMARK   82  A    between atoms: _199  and  _200
REMARK   83  A    between atoms: _200  and  _201
REMARK   84  A    between atoms: _205  and  _207
REMARK   85  A    between atoms: _207  and  _208
REMARK   86  A    between atoms: _207  and  _210
REMARK   87  A    between atoms: _210  and  _211
REMARK   88  A    between atoms: _211  and  _212
REMARK   89  A    between atoms: _212  and  _213
REMARK   90  A    between atoms: _213  and  _214
REMARK   91  A    between atoms: _218  and  _220
REMARK   92  A    between atoms: _220  and  _221
REMARK   93  A    between atoms: _220  and  _223
REMARK   94  A    between atoms: _223  and  _224
REMARK   95  A    between atoms: _234  and  _236
REMARK   96  A    between atoms: _236  and  _237
REMARK   97  A    between atoms: _236  and  _239
REMARK   98  A    between atoms: _239  and  _240
REMARK   99  A    between atoms: _240  and  _241
REMARK  100  A    between atoms: _246  and  _248
REMARK  101  A    between atoms: _248  and  _249
REMARK  102  A    between atoms: _252  and  _254
REMARK  103  A    between atoms: _254  and  _255
REMARK  104  A    between atoms: _254  and  _257
REMARK  105  A    between atoms: _257  and  _258
REMARK  106  A    between atoms: _258  and  _259
REMARK  107  A    between atoms: _259  and  _260
REMARK  108  A    between atoms: _260  and  _261
REMARK  109  A    between atoms: _265  and  _267
REMARK  110  A    between atoms: _267  and  _268
REMARK  111  A    between atoms: _267  and  _270
REMARK  112  A    between atoms: _270  and  _271
REMARK  113  A    between atoms: _277  and  _279
REMARK  114  A    between atoms: _279  and  _280
REMARK  115  A    between atoms: _279  and  _282
REMARK  116  A    between atoms: _282  and  _283
REMARK                            x       y       z     vdW  Elec       q    Type
REMARK                         _______ _______ _______ _____ _____    ______ ____
ROOT
ATOM      1  CA  LEU A   1       3.836 -46.744  25.205  0.00  0.00    +0.133 C 
ENDROOT
BRANCH   1   2
ATOM      2  N   LEU A   1       4.318 -46.587  23.821  0.00  0.00    -0.239 NA
ATOM      3  H   LEU A   1       5.305 -46.307  23.653  0.00  0.00    +0.142 HD
ENDBRANCH   1   2
BRANCH   1   4
ATOM      4  C   LEU A   1       3.086 -45.565  25.618  0.00  0.00    +0.224 C 
ATOM      5  O   LEU A   1       1.984 -45.685  26.139  0.00  0.00    -0.287 OA
ENDBRANCH   1   4
BRANCH   1   6
ATOM      6  CB  LEU A   1       4.985 -47.044  26.203  0.00  0.00    +0.025 C 
BRANCH   6   7
ATOM      7  CG  LEU A   1       4.935 -46.467  27.651  0.00  0.00    +0.002 C 
ATOM      8  CD2 LEU A   1       3.699 -46.926  28.446  0.00  0.00    +0.000 C 
ATOM      9  CD1 LEU A   1       6.196 -46.823  28.435  0.00  0.00    +0.000 C 
ENDBRANCH   6   7
ENDBRANCH   1   6
TORSDOF 4
REMARK  Name = ../refined-set-2016/1alw/1alw_pocket.pdb
REMARK  116 active torsions:
REMARK  status: ('A' for Active; 'I' for Inactive)
REMARK    1  A    between atoms: _1  and  _3
REMARK    2  A    between atoms: _3  and  _4
REMARK    3  A    between atoms: _3  and  _6
REMARK    4  A    between atoms: _6  and  _7
REMARK    5  A    between atoms: _7  and  _8
REMARK    6  A    between atoms: _13  and  _15
REMARK    7  A    between atoms: _15  and  _16
REMARK    8  A    between atoms: _15  and  _18
REMARK    9  A    between atoms: _18  and  _19
REMARK   10  A    between atoms: _22  and  _24
REMARK   11  A    between atoms: _24  and  _25
REMARK   12  A    between atoms: _24  and  _27
REMARK   13  A    between atoms: _27  and  _28
REMARK   14  A    between atoms: _31  and  _33
REMARK   15  A    between atoms: _33  and  _34
REMARK   16  A    between atoms: _33  and  _36
REMARK   17  A    between atoms: _36  and  _37
REMARK   18  A    between atoms: _40  and  _42
REMARK   19  A    between atoms: _42  and  _43
REMARK   20  A    between atoms: _42  and  _45
REMARK   21  A    between atoms: _45  and  _46
REMARK   22  A    between atoms: _46  and  _47
REMARK   23  A    between atoms: _47  and  _48
REMARK   24  A    between atoms: _48  and  _49
REMARK   25  A    between atoms: _53  and  _55
REMARK   26  A    between atoms: _55  and  _56
REMARK   27  A    between atoms: _55  and  _58
REMARK   28  A    between atoms: _61  and  _63
REMARK   29  A    between atoms: _63  and  _64
REMARK   30  A    between atoms: _63  and  _66
REMARK   31  A    between atoms: _69  and  _71
REMARK   32  A    between atoms: _71  and  _72
REMARK   33  A    between atoms: _71  and  _74
REMARK   34  A    between atoms: _74  and  _75
REMARK   35  A    between atoms: _78  and  _80
REMARK   36  A    between atoms: _80  and  _81
REMARK   37  A    between atoms: _80  and  _83
REMARK   38  A    between atoms: _83  and  _84
REMARK   39  A    between atoms: _84  and  _85
REMARK   40  A    between atoms: _85  and  _86
REMARK   41  A    between atoms: _95  and  _97
REMARK   42  A    between atoms: _97  and  _98
REMARK   43  A    between atoms: _97  and  _100
REMARK   44  A    between atoms: _100  and  _101
REMARK   45  A    between atoms: _106  and  _108
REMARK   46  A    between atoms: _108  and  _109
REMARK   47  A    between atoms: _108  and  _111
REMARK   48  A    between atoms: _111  and  _112
REMARK   49  A    between atoms: _115  and  _117
REMARK   50  A    between atoms: _117  and  _118
REMARK   51  A    between atoms: _117  and  _120
REMARK   52  A    between atoms: _120  and  _121
REMARK   53  A    between atoms: _124  and  _126
REMARK   54  A    between atoms: _126  and  _127
REMARK   55  A    between atoms: _126  and  _129
REMARK   56  A    between atoms: _129  and  _130
REMARK   57  A    between atoms: _136  and  _138
REMARK   58  A    between atoms: _138  and  _139
REMARK   59  A    between atoms: _138  and  _141
REMARK   60  A    between atoms: _141  and  _142
REMARK   61  A    between atoms: _145  and  _147
REMARK   62  A    between atoms: _147  and  _148
REMARK   63  A    between atoms: _147  and  _150
REMARK   64  A    between atoms: _150  and  _151
REMARK   65  A    between atoms: _161  and  _163
REMARK   66  A    between atoms: _163  and  _164
REMARK   67  A    between atoms: _163  and  _166
REMARK   68  A    between atoms: _166  and  _167
REMARK   69  A    between atoms: _172  and  _174
REMARK   70  A    between atoms: _174  and  _175
REMARK   71  A    between atoms: _174  and  _177
REMARK   72  A    between atoms: _177  and  _178
REMARK   73  A    between atoms: _183  and  _185
REMARK   74  A    between atoms: _185  and  _186
REMARK   75  A    between atoms: _185  and  _188
REMARK   76  A    between atoms: _188  and  _189
REMARK   77  A    between atoms: _192  and  _194
REMARK   78  A    between atoms: _194  and  _195
REMARK   79  A    between atoms: _194  and  _197
REMARK   80  A    between atoms: _197  and  _198
REMARK   81  A    between atoms: _198  and  _199
REMARK   82  A    between atoms: _199  and  _200
REMARK   83  A    between atoms: _200  and  _201
REMARK   84  A    between atoms: _205  and  _207
REMARK   85  A    between atoms: _207  and  _208
REMARK   86  A    between atoms: _207  and  _210
REMARK   87  A    between atoms: _210  and  _211
REMARK   88  A    between atoms: _211  and  _212
REMARK   89  A    between atoms: _212  and  _213
REMARK   90  A    between atoms: _213  and  _214
REMARK   91  A    between atoms: _218  and  _220
REMARK   92  A    between atoms: _220  and  _221
REMARK   93  A    between atoms: _220  and  _223
REMARK   94  A    between atoms: _223  and  _224
REMARK   95  A    between atoms: _234  and  _236
REMARK   96  A    between atoms: _236  and  _237
REMARK   97  A    between atoms: _236  and  _239
REMARK   98  A    between atoms: _239  and  _240
REMARK   99  A    between atoms: _240  and  _241
REMARK  100  A    between atoms: _246  and  _248
REMARK  101  A    between atoms: _248  and  _249
REMARK  102  A    between atoms: _252  and  _254
REMARK  103  A    between atoms: _254  and  _255
REMARK  104  A    between atoms: _254  and  _257
REMARK  105  A    between atoms: _257  and  _258
REMARK  106  A    between atoms: _258  and  _259
REMARK  107  A    between atoms: _259  and  _260
REMARK  108  A    between atoms: _260  and  _261
REMARK  109  A    between atoms: _265  and  _267
REMARK  110  A    between atoms: _267  and  _268
REMARK  111  A    between atoms: _267  and  _270
REMARK  112  A    between atoms: _270  and  _271
REMARK  113  A    between atoms: _277  and  _279
REMARK  114  A    between atoms: _279  and  _280
REMARK  115  A    between atoms: _279  and  _282
REMARK  116  A    between atoms: _282  and  _283
REMARK                            x       y       z     vdW  Elec       q    Type
REMARK                         _______ _______ _______ _____ _____    ______ ____
ROOT
ATOM      1  C   ILE A   1       1.286 -48.640  35.709  0.00  0.00    +0.238 C 
ATOM      2  N   LEU A   2       1.456 -47.773  36.705  0.00  0.00    -0.298 N 
ATOM      3  H   LEU A   2       0.893 -46.899  36.708  0.00  0.00    +0.150 HD
ATOM      4  O   ILE A   1       1.907 -49.703  35.621  0.00  0.00    -0.274 OA
ENDROOT
BRANCH   1   5
ATOM      5  CA  ILE A   1       0.307 -48.273  34.690  0.00  0.00    +0.145 C 
BRANCH   5   6
ATOM      6  N   ILE A   1      -0.885 -47.672  35.291  0.00  0.00    -0.238 NA
ATOM      7  H   ILE A   1      -1.081 -46.664  35.127  0.00  0.00    +0.142 HD
ENDBRANCH   5   6
BRANCH   5   8
ATOM      8  CB  ILE A   1       0.982 -47.339  33.634  0.00  0.00    +0.025 C 
ATOM      9  CG2 ILE A   1       1.559 -46.093  34.285  0.00  0.00    +0.002 C 
BRANCH   8  10
ATOM     10  CG1 ILE A   1       2.105 -48.068  32.890  0.00  0.00    +0.002 C 
ATOM     11  CD1 ILE A   1       1.625 -49.010  31.812  0.00  0.00    +0.000 C 
ENDBRANCH   8  10
ENDBRANCH   5   8
ENDBRANCH   1   5
BRANCH   2  12
ATOM     12  CA  LEU A   2       2.401 -48.002  37.792  0.00  0.00    +0.137 C 
BRANCH  12  13
ATOM     13  C   LEU A   2       2.008 -49.149  38.603  0.00  0.00    +0.227 C 
ATOM     14  O   LEU A   2       2.856 -49.869  39.086  0.00  0.00    -0.286 OA
ENDBRANCH  12  13
BRANCH  12  15
ATOM     15  CB  LEU A   2       2.538 -46.749  38.657  0.00  0.00    +0.028 C 
BRANCH  15  16
ATOM     16  CG  LEU A   2       3.880 -46.018  38.613  0.00  0.00    +0.002 C 
ATOM     17  CD2 LEU A   2       3.737 -44.614  39.197  0.00  0.00    +0.000 C 
ATOM     18  CD1 LEU A   2       4.393 -45.956  37.207  0.00  0.00    +0.000 C 
ENDBRANCH  15  16
ENDBRANCH  12  15
ENDBRANCH   2  12
TORSDOF 8
REMARK  Name = ../refined-set-2016/1alw/1alw_pocket.pdb
REMARK  116 active torsions:
REMARK  status: ('A' for Active; 'I' for Inactive)
REMARK    1  A    between atoms: _1  and  _3
REMARK    2  A    between atoms: _3  and  _4
REMARK    3  A    between atoms: _3  and  _6
REMARK    4  A    between atoms: _6  and  _7
REMARK    5  A    between atoms: _7  and  _8
REMARK    6  A    between atoms: _13  and  _15
REMARK    7  A    between atoms: _15  and  _16
REMARK    8  A    between atoms: _15  and  _18
REMARK    9  A    between atoms: _18  and  _19
REMARK   10  A    between atoms: _22  and  _24
REMARK   11  A    between atoms: _24  and  _25
REMARK   12  A    between atoms: _24  and  _27
REMARK   13  A    between atoms: _27  and  _28
REMARK   14  A    between atoms: _31  and  _33
REMARK   15  A    between atoms: _33  and  _34
REMARK   16  A    between atoms: _33  and  _36
REMARK   17  A    between atoms: _36  and  _37
REMARK   18  A    between atoms: _40  and  _42
REMARK   19  A    between atoms: _42  and  _43
REMARK   20  A    between atoms: _42  and  _45
REMARK   21  A    between atoms: _45  and  _46
REMARK   22  A    between atoms: _46  and  _47
REMARK   23  A    between atoms: _47  and  _48
REMARK   24  A    between atoms: _48  and  _49
REMARK   25  A    between atoms: _53  and  _55
REMARK   26  A    between atoms: _55  and  _56
REMARK   27  A    between atoms: _55  and  _58
REMARK   28  A    between atoms: _61  and  _63
REMARK   29  A    between atoms: _63  and  _64
REMARK   30  A    between atoms: _63  and  _66
REMARK   31  A    between atoms: _69  and  _71
REMARK   32  A    between atoms: _71  and  _72
REMARK   33  A    between atoms: _71  and  _74
REMARK   34  A    between atoms: _74  and  _75
REMARK   35  A    between atoms: _78  and  _80
REMARK   36  A    between atoms: _80  and  _81
REMARK   37  A    between atoms: _80  and  _83
REMARK   38  A    between atoms: _83  and  _84
REMARK   39  A    between atoms: _84  and  _85
REMARK   40  A    between atoms: _85  and  _86
REMARK   41  A    between atoms: _95  and  _97
REMARK   42  A    between atoms: _97  and  _98
REMARK   43  A    between atoms: _97  and  _100
REMARK   44  A    between atoms: _100  and  _101
REMARK   45  A    between atoms: _106  and  _108
REMARK   46  A    between atoms: _108  and  _109
REMARK   47  A    between atoms: _108  and  _111
REMARK   48  A    between atoms: _111  and  _112
REMARK   49  A    between atoms: _115  and  _117
REMARK   50  A    between atoms: _117  and  _118
REMARK   51  A    between atoms: _117  and  _120
REMARK   52  A    between atoms: _120  and  _121
REMARK   53  A    between atoms: _124  and  _126
REMARK   54  A    between atoms: _126  and  _127
REMARK   55  A    between atoms: _126  and  _129
REMARK   56  A    between atoms: _129  and  _130
REMARK   57  A    between atoms: _136  and  _138
REMARK   58  A    between atoms: _138  and  _139
REMARK   59  A    between atoms: _138  and  _141
REMARK   60  A    between atoms: _141  and  _142
REMARK   61  A    between atoms: _145  and  _147
REMARK   62  A    between atoms: _147  and  _148
REMARK   63  A    between atoms: _147  and  _150
REMARK   64  A    between atoms: _150  and  _151
REMARK   65  A    between atoms: _161  and  _163
REMARK   66  A    between atoms: _163  and  _164
REMARK   67  A    between atoms: _163  and  _166
REMARK   68  A    between atoms: _166  and  _167
REMARK   69  A    between atoms: _172  and  _174
REMARK   70  A    between atoms: _174  and  _175
REMARK   71  A    between atoms: _174  and  _177
REMARK   72  A    between atoms: _177  and  _178
REMARK   73  A    between atoms: _183  and  _185
REMARK   74  A    between atoms: _185  and  _186
REMARK   75  A    between atoms: _185  and  _188
REMARK   76  A    between atoms: _188  and  _189
REMARK   77  A    between atoms: _192  and  _194
REMARK   78  A    between atoms: _194  and  _195
REMARK   79  A    between atoms: _194  and  _197
REMARK   80  A    between atoms: _197  and  _198
REMARK   81  A    between atoms: _198  and  _199
REMARK   82  A    between atoms: _199  and  _200
REMARK   83  A    between atoms: _200  and  _201
REMARK   84  A    between atoms: _205  and  _207
REMARK   85  A    between atoms: _207  and  _208
REMARK   86  A    between atoms: _207  and  _210
REMARK   87  A    between atoms: _210  and  _211
REMARK   88  A    between atoms: _211  and  _212
REMARK   89  A    between atoms: _212  and  _213
REMARK   90  A    between atoms: _213  and  _214
REMARK   91  A    between atoms: _218  and  _220
REMARK   92  A    between atoms: _220  and  _221
REMARK   93  A    between atoms: _220  and  _223
REMARK   94  A    between atoms: _223  and  _224
REMARK   95  A    between atoms: _234  and  _236
REMARK   96  A    between atoms: _236  and  _237
REMARK   97  A    between atoms: _236  and  _239
REMARK   98  A    between atoms: _239  and  _240
REMARK   99  A    between atoms: _240  and  _241
REMARK  100  A    between atoms: _246  and  _248
REMARK  101  A    between atoms: _248  and  _249
REMARK  102  A    between atoms: _252  and  _254
REMARK  103  A    between atoms: _254  and  _255
REMARK  104  A    between atoms: _254  and  _257
REMARK  105  A    between atoms: _257  and  _258
REMARK  106  A    between atoms: _258  and  _259
REMARK  107  A    between atoms: _259  and  _260
REMARK  108  A    between atoms: _260  and  _261
REMARK  109  A    between atoms: _265  and  _267
REMARK  110  A    between atoms: _267  and  _268
REMARK  111  A    between atoms: _267  and  _270
REMARK  112  A    between atoms: _270  and  _271
REMARK  113  A    between atoms: _277  and  _279
REMARK  114  A    between atoms: _279  and  _280
REMARK  115  A    between atoms: _279  and  _282
REMARK  116  A    between atoms: _282  and  _283
REMARK                            x       y       z     vdW  Elec       q    Type
REMARK                         _______ _______ _______ _____ _____    ______ ____
ROOT
ATOM      1  CA  THR A   4       3.223 -56.365  40.113  0.00  0.00    +0.176 C 
ENDROOT
BRANCH   1   4
ATOM      2  C   VAL A   3       4.771 -54.472  40.225  0.00  0.00    +0.241 C 
ATOM      3  O   VAL A   3       5.570 -55.120  40.920  0.00  0.00    -0.273 OA
ATOM      4  N   THR A   4       3.645 -55.002  39.773  0.00  0.00    -0.295 N 
ATOM      5  H   THR A   4       3.036 -54.430  39.153  0.00  0.00    +0.150 HD
BRANCH   2   6
ATOM      6  CA  VAL A   3       5.077 -53.072  39.796  0.00  0.00    +0.149 C 
BRANCH   6   8
ATOM      7  C   VAL A   2       4.659 -53.413  37.431  0.00  0.00    +0.241 C 
ATOM      8  N   VAL A   3       4.510 -52.660  38.517  0.00  0.00    -0.297 N 
ATOM      9  H   VAL A   3       3.982 -51.766  38.453  0.00  0.00    +0.150 HD
ATOM     10  O   VAL A   2       5.207 -54.516  37.467  0.00  0.00    -0.273 OA
BRANCH   7  11
ATOM     11  CA  VAL A   2       4.077 -52.914  36.163  0.00  0.00    +0.148 C 
BRANCH  11  14
ATOM     12  C   LYS A   1       1.725 -53.337  36.476  0.00  0.00    +0.238 C 
ATOM     13  O   LYS A   1       1.944 -54.533  36.608  0.00  0.00    -0.274 OA
ATOM     14  N   VAL A   2       2.698 -52.466  36.261  0.00  0.00    -0.297 N 
ATOM     15  H   VAL A   2       2.474 -51.455  36.162  0.00  0.00    +0.150 HD
BRANCH  12  16
ATOM     16  CA  LYS A   1       0.344 -52.802  36.571  0.00  0.00    +0.145 C 
BRANCH  16  17
ATOM     17  N   LYS A   1       0.292 -51.633  37.462  0.00  0.00    -0.238 NA
ATOM     18  H   LYS A   1       0.244 -50.682  37.043  0.00  0.00    +0.142 HD
ENDBRANCH  16  17
BRANCH  16  19
ATOM     19  CB  LYS A   1      -0.157 -52.446  35.165  0.00  0.00    +0.026 C 
BRANCH  19  20
ATOM     20  CG  LYS A   1      -0.310 -53.637  34.239  0.00  0.00    -0.000 C 
BRANCH  20  21
ATOM     21  CD  LYS A   1      -0.310 -53.227  32.758  0.00  0.00    -0.024 C 
BRANCH  21  22
ATOM     22  CE  LYS A   1       1.131 -53.092  32.186  0.00  0.00    -0.086 C 
BRANCH  22  23
ATOM     23  NZ  LYS A   1       1.226 -52.312  30.867  0.00  0.00    +0.380 N 
ATOM     24  HZ1 LYS A   1       0.866 -51.347  31.010  0.00  0.00    -0.089 HD
ATOM     25  HZ2 LYS A   1       2.219 -52.272  30.560  0.00  0.00    -0.089 HD
ATOM     26  HZ3 LYS A   1       0.657 -52.791  30.140  0.00  0.00    -0.089 HD
ENDBRANCH  22  23
ENDBRANCH  21  22
ENDBRANCH  20  21
ENDBRANCH  19  20
ENDBRANCH  16  19
ENDBRANCH  12  16
ENDBRANCH  11  14
BRANCH  11  27
ATOM     27  CB  VAL A   2       4.971 -51.812  35.599  0.00  0.00    +0.027 C 
ATOM     28  CG2 VAL A   2       6.386 -52.345  35.359  0.00  0.00    +0.002 C 
ATOM     29  CG1 VAL A   2       4.356 -51.261  34.312  0.00  0.00    +0.002 C 
ENDBRANCH  11  27
ENDBRANCH   7  11
ENDBRANCH   6   8
BRANCH   6  30
ATOM     30  CB  VAL A   3       4.760 -52.041  40.908  0.00  0.00    +0.027 C 
ATOM     31  CG2 VAL A   3       5.841 -52.049  41.938  0.00  0.00    +0.002 C 
ATOM     32  CG1 VAL A   3       3.395 -52.297  41.543  0.00  0.00    +0.002 C 
ENDBRANCH   6  30
ENDBRANCH   2   6
ENDBRANCH   1   4
BRANCH   1  33
ATOM     33  C   THR A   4       4.050 -57.397  39.433  0.00  0.00    +0.243 C 
ATOM     34  O   THR A   4       4.070 -58.570  39.825  0.00  0.00    -0.273 OA
ATOM     35  N   ARG A   5       4.737 -56.976  38.379  0.00  0.00    -0.297 N 
ATOM     36  H   ARG A   5       4.668 -55.978  38.095  0.00  0.00    +0.150 HD
BRANCH  35  37
ATOM     37  CA  ARG A   5       5.580 -57.869  37.614  0.00  0.00    +0.149 C 
BRANCH  37  38
ATOM     38  C   ARG A   5       6.952 -57.795  38.160  0.00  0.00    +0.241 C 
ATOM     39  N   HIS A   6       7.086 -57.312  39.389  0.00  0.00    -0.298 N 
ATOM     40  H   HIS A   6       6.238 -57.012  39.911  0.00  0.00    +0.150 HD
ATOM     41  O   ARG A   5       7.906 -58.199  37.514  0.00  0.00    -0.273 OA
BRANCH  39  42
ATOM     42  CA  HIS A   6       8.394 -57.191  40.027  0.00  0.00    +0.143 C 
BRANCH  42  43
ATOM     43  C   HIS A   6       8.214 -57.466  41.470  0.00  0.00    +0.227 C 
ATOM     44  O   HIS A   6       7.883 -56.556  42.245  0.00  0.00    -0.286 OA
ENDBRANCH  42  43
BRANCH  42  45
ATOM     45  CB  HIS A   6       8.925 -55.770  39.841  0.00  0.00    +0.075 C 
BRANCH  45  46
ATOM     46  CG  HIS A   6       9.264 -55.426  38.430  0.00  0.00    +0.082 A 
ATOM     47  ND1 HIS A   6      10.455 -55.791  37.846  0.00  0.00    -0.227 NA
ATOM     48  CE1 HIS A   6      10.491 -55.345  36.603  0.00  0.00    +0.199 A 
ATOM     49  NE2 HIS A   6       9.362 -54.704  36.360  0.00  0.00    -0.221 NA
ATOM     50  CD2 HIS A   6       8.576 -54.742  37.487  0.00  0.00    +0.115 A 
ENDBRANCH  45  46
ENDBRANCH  42  45
ENDBRANCH  39  42
ENDBRANCH  37  38
BRANCH  37  51
ATOM     51  CB  ARG A   5       5.553 -57.457  36.128  0.00  0.00    +0.033 C 
BRANCH  51  52
ATOM     52  CG  ARG A   5       4.150 -57.150  35.598  0.00  0.00    +0.045 C 
BRANCH  52  53
ATOM     53  CD  ARG A   5       4.078 -56.846  34.086  0.00  0.00    +0.174 C 
BRANCH  53  54
ATOM     54  NE  ARG A   5       4.878 -55.706  33.584  0.00  0.00    -0.265 N 
ATOM     55  HE  ARG A   5       5.786 -55.505  34.050  0.00  0.00    +0.259 HD
ATOM     56  CZ  ARG A   5       4.504 -54.912  32.561  0.00  0.00    +0.342 C 
ATOM     57  NH2 ARG A   5       5.330 -53.988  32.057  0.00  0.00    -0.292 N 
ATOM     58 HH21 ARG A   5       6.284 -53.871  32.455  0.00  0.00    +0.255 HD
ATOM     59 HH22 ARG A   5       5.018 -53.387  31.267  0.00  0.00    +0.255 HD
ATOM     60  NH1 ARG A   5       3.337 -55.108  31.949  0.00  0.00    -0.292 N 
ATOM     61 HH11 ARG A   5       2.709 -55.877  32.260  0.00  0.00    +0.255 HD
ATOM     62 HH12 ARG A   5       3.054 -54.492  31.160  0.00  0.00    +0.255 HD
ENDBRANCH  53  54
ENDBRANCH  52  53
ENDBRANCH  51  52
ENDBRANCH  37  51
ENDBRANCH  35  37
ENDBRANCH   1  33
BRANCH   1  63
ATOM     63  CB  THR A   4       1.770 -56.570  39.696  0.00  0.00    +0.137 C 
ATOM     64  CG2 THR A   4       1.256 -57.915  40.174  0.00  0.00    +0.034 C 
BRANCH  63  65
ATOM     65  OG1 THR A   4       0.976 -55.538  40.289  0.00  0.00    -0.382 OA
ATOM     66  HG1 THR A   4       1.296 -54.655  39.975  0.00  0.00    +0.210 HD
ENDBRANCH  63  65
ENDBRANCH   1  63
TORSDOF 27
REMARK  Name = ../refined-set-2016/1alw/1alw_pocket.pdb
REMARK  116 active torsions:
REMARK  status: ('A' for Active; 'I' for Inactive)
REMARK    1  A    between atoms: _1  and  _3
REMARK    2  A    between atoms: _3  and  _4
REMARK    3  A    between atoms: _3  and  _6
REMARK    4  A    between atoms: _6  and  _7
REMARK    5  A    between atoms: _7  and  _8
REMARK    6  A    between atoms: _13  and  _15
REMARK    7  A    between atoms: _15  and  _16
REMARK    8  A    between atoms: _15  and  _18
REMARK    9  A    between atoms: _18  and  _19
REMARK   10  A    between atoms: _22  and  _24
REMARK   11  A    between atoms: _24  and  _25
REMARK   12  A    between atoms: _24  and  _27
REMARK   13  A    between atoms: _27  and  _28
REMARK   14  A    between atoms: _31  and  _33
REMARK   15  A    between atoms: _33  and  _34
REMARK   16  A    between atoms: _33  and  _36
REMARK   17  A    between atoms: _36  and  _37
REMARK   18  A    between atoms: _40  and  _42
REMARK   19  A    between atoms: _42  and  _43
REMARK   20  A    between atoms: _42  and  _45
REMARK   21  A    between atoms: _45  and  _46
REMARK   22  A    between atoms: _46  and  _47
REMARK   23  A    between atoms: _47  and  _48
REMARK   24  A    between atoms: _48  and  _49
REMARK   25  A    between atoms: _53  and  _55
REMARK   26  A    between atoms: _55  and  _56
REMARK   27  A    between atoms: _55  and  _58
REMARK   28  A    between atoms: _61  and  _63
REMARK   29  A    between atoms: _63  and  _64
REMARK   30  A    between atoms: _63  and  _66
REMARK   31  A    between atoms: _69  and  _71
REMARK   32  A    between atoms: _71  and  _72
REMARK   33  A    between atoms: _71  and  _74
REMARK   34  A    between atoms: _74  and  _75
REMARK   35  A    between atoms: _78  and  _80
REMARK   36  A    between atoms: _80  and  _81
REMARK   37  A    between atoms: _80  and  _83
REMARK   38  A    between atoms: _83  and  _84
REMARK   39  A    between atoms: _84  and  _85
REMARK   40  A    between atoms: _85  and  _86
REMARK   41  A    between atoms: _95  and  _97
REMARK   42  A    between atoms: _97  and  _98
REMARK   43  A    between atoms: _97  and  _100
REMARK   44  A    between atoms: _100  and  _101
REMARK   45  A    between atoms: _106  and  _108
REMARK   46  A    between atoms: _108  and  _109
REMARK   47  A    between atoms: _108  and  _111
REMARK   48  A    between atoms: _111  and  _112
REMARK   49  A    between atoms: _115  and  _117
REMARK   50  A    between atoms: _117  and  _118
REMARK   51  A    between atoms: _117  and  _120
REMARK   52  A    between atoms: _120  and  _121
REMARK   53  A    between atoms: _124  and  _126
REMARK   54  A    between atoms: _126  and  _127
REMARK   55  A    between atoms: _126  and  _129
REMARK   56  A    between atoms: _129  and  _130
REMARK   57  A    between atoms: _136  and  _138
REMARK   58  A    between atoms: _138  and  _139
REMARK   59  A    between atoms: _138  and  _141
REMARK   60  A    between atoms: _141  and  _142
REMARK   61  A    between atoms: _145  and  _147
REMARK   62  A    between atoms: _147  and  _148
REMARK   63  A    between atoms: _147  and  _150
REMARK   64  A    between atoms: _150  and  _151
REMARK   65  A    between atoms: _161  and  _163
REMARK   66  A    between atoms: _163  and  _164
REMARK   67  A    between atoms: _163  and  _166
REMARK   68  A    between atoms: _166  and  _167
REMARK   69  A    between atoms: _172  and  _174
REMARK   70  A    between atoms: _174  and  _175
REMARK   71  A    between atoms: _174  and  _177
REMARK   72  A    between atoms: _177  and  _178
REMARK   73  A    between atoms: _183  and  _185
REMARK   74  A    between atoms: _185  and  _186
REMARK   75  A    between atoms: _185  and  _188
REMARK   76  A    between atoms: _188  and  _189
REMARK   77  A    between atoms: _192  and  _194
REMARK   78  A    between atoms: _194  and  _195
REMARK   79  A    between atoms: _194  and  _197
REMARK   80  A    between atoms: _197  and  _198
REMARK   81  A    between atoms: _198  and  _199
REMARK   82  A    between atoms: _199  and  _200
REMARK   83  A    between atoms: _200  and  _201
REMARK   84  A    between atoms: _205  and  _207
REMARK   85  A    between atoms: _207  and  _208
REMARK   86  A    between atoms: _207  and  _210
REMARK   87  A    between atoms: _210  and  _211
REMARK   88  A    between atoms: _211  and  _212
REMARK   89  A    between atoms: _212  and  _213
REMARK   90  A    between atoms: _213  and  _214
REMARK   91  A    between atoms: _218  and  _220
REMARK   92  A    between atoms: _220  and  _221
REMARK   93  A    between atoms: _220  and  _223
REMARK   94  A    between atoms: _223  and  _224
REMARK   95  A    between atoms: _234  and  _236
REMARK   96  A    between atoms: _236  and  _237
REMARK   97  A    between atoms: _236  and  _239
REMARK   98  A    between atoms: _239  and  _240
REMARK   99  A    between atoms: _240  and  _241
REMARK  100  A    between atoms: _246  and  _248
REMARK  101  A    between atoms: _248  and  _249
REMARK  102  A    between atoms: _252  and  _254
REMARK  103  A    between atoms: _254  and  _255
REMARK  104  A    between atoms: _254  and  _257
REMARK  105  A    between atoms: _257  and  _258
REMARK  106  A    between atoms: _258  and  _259
REMARK  107  A    between atoms: _259  and  _260
REMARK  108  A    between atoms: _260  and  _261
REMARK  109  A    between atoms: _265  and  _267
REMARK  110  A    between atoms: _267  and  _268
REMARK  111  A    between atoms: _267  and  _270
REMARK  112  A    between atoms: _270  and  _271
REMARK  113  A    between atoms: _277  and  _279
REMARK  114  A    between atoms: _279  and  _280
REMARK  115  A    between atoms: _279  and  _282
REMARK  116  A    between atoms: _282  and  _283
REMARK                            x       y       z     vdW  Elec       q    Type
REMARK                         _______ _______ _______ _____ _____    ______ ____
ROOT
ATOM      1  C   ASP A   1      11.105 -56.341  45.085  0.00  0.00    +0.239 C 
ATOM      2  O   ASP A   1      11.873 -55.837  45.909  0.00  0.00    -0.274 OA
ATOM      3  N   LEU A   2       9.981 -55.747  44.691  0.00  0.00    -0.298 N 
ATOM      4  H   LEU A   2       9.356 -56.244  44.025  0.00  0.00    +0.150 HD
ENDROOT
BRANCH   1   5
ATOM      5  CA  ASP A   1      11.375 -57.677  44.500  0.00  0.00    +0.156 C 
BRANCH   5   6
ATOM      6  N   ASP A   1      10.224 -58.103  43.700  0.00  0.00    -0.238 NA
ATOM      7  H   ASP A   1      10.170 -57.813  42.703  0.00  0.00    +0.142 HD
ENDBRANCH   5   6
BRANCH   5   8
ATOM      8  CB  ASP A   1      12.631 -57.599  43.615  0.00  0.00    +0.140 C 
BRANCH   8   9
ATOM      9  CG  ASP A   1      12.387 -58.116  42.181  0.00  0.00    +0.367 C 
ATOM     10  OD2 ASP A   1      12.781 -59.264  41.893  0.00  0.00    -0.246 OA
ATOM     11  OD1 ASP A   1      11.798 -57.399  41.339  0.00  0.00    -0.246 OA
ENDBRANCH   8   9
ENDBRANCH   5   8
ENDBRANCH   1   5
BRANCH   3  12
ATOM     12  CA  LEU A   2       9.597 -54.420  45.163  0.00  0.00    +0.137 C 
BRANCH  12  13
ATOM     13  C   LEU A   2       8.366 -54.527  45.957  0.00  0.00    +0.227 C 
ATOM     14  O   LEU A   2       7.307 -54.802  45.384  0.00  0.00    -0.286 OA
ENDBRANCH  12  13
BRANCH  12  15
ATOM     15  CB  LEU A   2       9.307 -53.530  43.951  0.00  0.00    +0.028 C 
BRANCH  15  16
ATOM     16  CG  LEU A   2      10.252 -53.651  42.760  0.00  0.00    +0.002 C 
ATOM     17  CD2 LEU A   2      11.603 -53.041  43.118  0.00  0.00    +0.000 C 
ATOM     18  CD1 LEU A   2       9.642 -52.991  41.550  0.00  0.00    +0.000 C 
ENDBRANCH  15  16
ENDBRANCH  12  15
ENDBRANCH   3  12
TORSDOF 8
REMARK  Name = ../refined-set-2016/1alw/1alw_pocket.pdb
REMARK  116 active torsions:
REMARK  status: ('A' for Active; 'I' for Inactive)
REMARK    1  A    between atoms: _1  and  _3
REMARK    2  A    between atoms: _3  and  _4
REMARK    3  A    between atoms: _3  and  _6
REMARK    4  A    between atoms: _6  and  _7
REMARK    5  A    between atoms: _7  and  _8
REMARK    6  A    between atoms: _13  and  _15
REMARK    7  A    between atoms: _15  and  _16
REMARK    8  A    between atoms: _15  and  _18
REMARK    9  A    between atoms: _18  and  _19
REMARK   10  A    between atoms: _22  and  _24
REMARK   11  A    between atoms: _24  and  _25
REMARK   12  A    between atoms: _24  and  _27
REMARK   13  A    between atoms: _27  and  _28
REMARK   14  A    between atoms: _31  and  _33
REMARK   15  A    between atoms: _33  and  _34
REMARK   16  A    between atoms: _33  and  _36
REMARK   17  A    between atoms: _36  and  _37
REMARK   18  A    between atoms: _40  and  _42
REMARK   19  A    between atoms: _42  and  _43
REMARK   20  A    between atoms: _42  and  _45
REMARK   21  A    between atoms: _45  and  _46
REMARK   22  A    between atoms: _46  and  _47
REMARK   23  A    between atoms: _47  and  _48
REMARK   24  A    between atoms: _48  and  _49
REMARK   25  A    between atoms: _53  and  _55
REMARK   26  A    between atoms: _55  and  _56
REMARK   27  A    between atoms: _55  and  _58
REMARK   28  A    between atoms: _61  and  _63
REMARK   29  A    between atoms: _63  and  _64
REMARK   30  A    between atoms: _63  and  _66
REMARK   31  A    between atoms: _69  and  _71
REMARK   32  A    between atoms: _71  and  _72
REMARK   33  A    between atoms: _71  and  _74
REMARK   34  A    between atoms: _74  and  _75
REMARK   35  A    between atoms: _78  and  _80
REMARK   36  A    between atoms: _80  and  _81
REMARK   37  A    between atoms: _80  and  _83
REMARK   38  A    between atoms: _83  and  _84
REMARK   39  A    between atoms: _84  and  _85
REMARK   40  A    between atoms: _85  and  _86
REMARK   41  A    between atoms: _95  and  _97
REMARK   42  A    between atoms: _97  and  _98
REMARK   43  A    between atoms: _97  and  _100
REMARK   44  A    between atoms: _100  and  _101
REMARK   45  A    between atoms: _106  and  _108
REMARK   46  A    between atoms: _108  and  _109
REMARK   47  A    between atoms: _108  and  _111
REMARK   48  A    between atoms: _111  and  _112
REMARK   49  A    between atoms: _115  and  _117
REMARK   50  A    between atoms: _117  and  _118
REMARK   51  A    between atoms: _117  and  _120
REMARK   52  A    between atoms: _120  and  _121
REMARK   53  A    between atoms: _124  and  _126
REMARK   54  A    between atoms: _126  and  _127
REMARK   55  A    between atoms: _126  and  _129
REMARK   56  A    between atoms: _129  and  _130
REMARK   57  A    between atoms: _136  and  _138
REMARK   58  A    between atoms: _138  and  _139
REMARK   59  A    between atoms: _138  and  _141
REMARK   60  A    between atoms: _141  and  _142
REMARK   61  A    between atoms: _145  and  _147
REMARK   62  A    between atoms: _147  and  _148
REMARK   63  A    between atoms: _147  and  _150
REMARK   64  A    between atoms: _150  and  _151
REMARK   65  A    between atoms: _161  and  _163
REMARK   66  A    between atoms: _163  and  _164
REMARK   67  A    between atoms: _163  and  _166
REMARK   68  A    between atoms: _166  and  _167
REMARK   69  A    between atoms: _172  and  _174
REMARK   70  A    between atoms: _174  and  _175
REMARK   71  A    between atoms: _174  and  _177
REMARK   72  A    between atoms: _177  and  _178
REMARK   73  A    between atoms: _183  and  _185
REMARK   74  A    between atoms: _185  and  _186
REMARK   75  A    between atoms: _185  and  _188
REMARK   76  A    between atoms: _188  and  _189
REMARK   77  A    between atoms: _192  and  _194
REMARK   78  A    between atoms: _194  and  _195
REMARK   79  A    between atoms: _194  and  _197
REMARK   80  A    between atoms: _197  and  _198
REMARK   81  A    between atoms: _198  and  _199
REMARK   82  A    between atoms: _199  and  _200
REMARK   83  A    between atoms: _200  and  _201
REMARK   84  A    between atoms: _205  and  _207
REMARK   85  A    between atoms: _207  and  _208
REMARK   86  A    between atoms: _207  and  _210
REMARK   87  A    between atoms: _210  and  _211
REMARK   88  A    between atoms: _211  and  _212
REMARK   89  A    between atoms: _212  and  _213
REMARK   90  A    between atoms: _213  and  _214
REMARK   91  A    between atoms: _218  and  _220
REMARK   92  A    between atoms: _220  and  _221
REMARK   93  A    between atoms: _220  and  _223
REMARK   94  A    between atoms: _223  and  _224
REMARK   95  A    between atoms: _234  and  _236
REMARK   96  A    between atoms: _236  and  _237
REMARK   97  A    between atoms: _236  and  _239
REMARK   98  A    between atoms: _239  and  _240
REMARK   99  A    between atoms: _240  and  _241
REMARK  100  A    between atoms: _246  and  _248
REMARK  101  A    between atoms: _248  and  _249
REMARK  102  A    between atoms: _252  and  _254
REMARK  103  A    between atoms: _254  and  _255
REMARK  104  A    between atoms: _254  and  _257
REMARK  105  A    between atoms: _257  and  _258
REMARK  106  A    between atoms: _258  and  _259
REMARK  107  A    between atoms: _259  and  _260
REMARK  108  A    between atoms: _260  and  _261
REMARK  109  A    between atoms: _265  and  _267
REMARK  110  A    between atoms: _267  and  _268
REMARK  111  A    between atoms: _267  and  _270
REMARK  112  A    between atoms: _270  and  _271
REMARK  113  A    between atoms: _277  and  _279
REMARK  114  A    between atoms: _279  and  _280
REMARK  115  A    between atoms: _279  and  _282
REMARK  116  A    between atoms: _282  and  _283
REMARK                            x       y       z     vdW  Elec       q    Type
REMARK                         _______ _______ _______ _____ _____    ______ ____
ROOT
ATOM      1  CB  PHE A   1       1.037 -46.209  42.755  0.00  0.00    +0.051 C 
ENDROOT
BRANCH   1   2
ATOM      2  CG  PHE A   1       2.535 -46.247  42.674  0.00  0.00    -0.020 A 
ATOM      3  CD2 PHE A   1       3.286 -45.108  42.928  0.00  0.00    -0.004 A 
ATOM      4  CE2 PHE A   1       4.686 -45.132  42.835  0.00  0.00    -0.000 A 
ATOM      5  CZ  PHE A   1       5.346 -46.313  42.484  0.00  0.00    -0.000 A 
ATOM      6  CE1 PHE A   1       4.603 -47.460  42.229  0.00  0.00    -0.000 A 
ATOM      7  CD1 PHE A   1       3.194 -47.416  42.328  0.00  0.00    -0.004 A 
ENDBRANCH   1   2
BRANCH   1   8
ATOM      8  CA  PHE A   1       0.477 -46.475  44.156  0.00  0.00    +0.137 C 
BRANCH   8   9
ATOM      9  N   PHE A   1       0.319 -47.897  44.417  0.00  0.00    -0.239 NA
ATOM     10  H   PHE A   1       0.139 -48.549  43.627  0.00  0.00    +0.142 HD
ENDBRANCH   8   9
BRANCH   8  11
ATOM     11  C   PHE A   1      -0.875 -45.968  44.251  0.00  0.00    +0.224 C 
ATOM     12  O   PHE A   1      -1.725 -46.371  43.473  0.00  0.00    -0.287 OA
ENDBRANCH   8  11
ENDBRANCH   1   8
TORSDOF 4
REMARK  Name = ../refined-set-2016/1alw/1alw_pocket.pdb
REMARK  116 active torsions:
REMARK  status: ('A' for Active; 'I' for Inactive)
REMARK    1  A    between atoms: _1  and  _3
REMARK    2  A    between atoms: _3  and  _4
REMARK    3  A    between atoms: _3  and  _6
REMARK    4  A    between atoms: _6  and  _7
REMARK    5  A    between atoms: _7  and  _8
REMARK    6  A    between atoms: _13  and  _15
REMARK    7  A    between atoms: _15  and  _16
REMARK    8  A    between atoms: _15  and  _18
REMARK    9  A    between atoms: _18  and  _19
REMARK   10  A    between atoms: _22  and  _24
REMARK   11  A    between atoms: _24  and  _25
REMARK   12  A    between atoms: _24  and  _27
REMARK   13  A    between atoms: _27  and  _28
REMARK   14  A    between atoms: _31  and  _33
REMARK   15  A    between atoms: _33  and  _34
REMARK   16  A    between atoms: _33  and  _36
REMARK   17  A    between atoms: _36  and  _37
REMARK   18  A    between atoms: _40  and  _42
REMARK   19  A    between atoms: _42  and  _43
REMARK   20  A    between atoms: _42  and  _45
REMARK   21  A    between atoms: _45  and  _46
REMARK   22  A    between atoms: _46  and  _47
REMARK   23  A    between atoms: _47  and  _48
REMARK   24  A    between atoms: _48  and  _49
REMARK   25  A    between atoms: _53  and  _55
REMARK   26  A    between atoms: _55  and  _56
REMARK   27  A    between atoms: _55  and  _58
REMARK   28  A    between atoms: _61  and  _63
REMARK   29  A    between atoms: _63  and  _64
REMARK   30  A    between atoms: _63  and  _66
REMARK   31  A    between atoms: _69  and  _71
REMARK   32  A    between atoms: _71  and  _72
REMARK   33  A    between atoms: _71  and  _74
REMARK   34  A    between atoms: _74  and  _75
REMARK   35  A    between atoms: _78  and  _80
REMARK   36  A    between atoms: _80  and  _81
REMARK   37  A    between atoms: _80  and  _83
REMARK   38  A    between atoms: _83  and  _84
REMARK   39  A    between atoms: _84  and  _85
REMARK   40  A    between atoms: _85  and  _86
REMARK   41  A    between atoms: _95  and  _97
REMARK   42  A    between atoms: _97  and  _98
REMARK   43  A    between atoms: _97  and  _100
REMARK   44  A    between atoms: _100  and  _101
REMARK   45  A    between atoms: _106  and  _108
REMARK   46  A    between atoms: _108  and  _109
REMARK   47  A    between atoms: _108  and  _111
REMARK   48  A    between atoms: _111  and  _112
REMARK   49  A    between atoms: _115  and  _117
REMARK   50  A    between atoms: _117  and  _118
REMARK   51  A    between atoms: _117  and  _120
REMARK   52  A    between atoms: _120  and  _121
REMARK   53  A    between atoms: _124  and  _126
REMARK   54  A    between atoms: _126  and  _127
REMARK   55  A    between atoms: _126  and  _129
REMARK   56  A    between atoms: _129  and  _130
REMARK   57  A    between atoms: _136  and  _138
REMARK   58  A    between atoms: _138  and  _139
REMARK   59  A    between atoms: _138  and  _141
REMARK   60  A    between atoms: _141  and  _142
REMARK   61  A    between atoms: _145  and  _147
REMARK   62  A    between atoms: _147  and  _148
REMARK   63  A    between atoms: _147  and  _150
REMARK   64  A    between atoms: _150  and  _151
REMARK   65  A    between atoms: _161  and  _163
REMARK   66  A    between atoms: _163  and  _164
REMARK   67  A    between atoms: _163  and  _166
REMARK   68  A    between atoms: _166  and  _167
REMARK   69  A    between atoms: _172  and  _174
REMARK   70  A    between atoms: _174  and  _175
REMARK   71  A    between atoms: _174  and  _177
REMARK   72  A    between atoms: _177  and  _178
REMARK   73  A    between atoms: _183  and  _185
REMARK   74  A    between atoms: _185  and  _186
REMARK   75  A    between atoms: _185  and  _188
REMARK   76  A    between atoms: _188  and  _189
REMARK   77  A    between atoms: _192  and  _194
REMARK   78  A    between atoms: _194  and  _195
REMARK   79  A    between atoms: _194  and  _197
REMARK   80  A    between atoms: _197  and  _198
REMARK   81  A    between atoms: _198  and  _199
REMARK   82  A    between atoms: _199  and  _200
REMARK   83  A    between atoms: _200  and  _201
REMARK   84  A    between atoms: _205  and  _207
REMARK   85  A    between atoms: _207  and  _208
REMARK   86  A    between atoms: _207  and  _210
REMARK   87  A    between atoms: _210  and  _211
REMARK   88  A    between atoms: _211  and  _212
REMARK   89  A    between atoms: _212  and  _213
REMARK   90  A    between atoms: _213  and  _214
REMARK   91  A    between atoms: _218  and  _220
REMARK   92  A    between atoms: _220  and  _221
REMARK   93  A    between atoms: _220  and  _223
REMARK   94  A    between atoms: _223  and  _224
REMARK   95  A    between atoms: _234  and  _236
REMARK   96  A    between atoms: _236  and  _237
REMARK   97  A    between atoms: _236  and  _239
REMARK   98  A    between atoms: _239  and  _240
REMARK   99  A    between atoms: _240  and  _241
REMARK  100  A    between atoms: _246  and  _248
REMARK  101  A    between atoms: _248  and  _249
REMARK  102  A    between atoms: _252  and  _254
REMARK  103  A    between atoms: _254  and  _255
REMARK  104  A    between atoms: _254  and  _257
REMARK  105  A    between atoms: _257  and  _258
REMARK  106  A    between atoms: _258  and  _259
REMARK  107  A    between atoms: _259  and  _260
REMARK  108  A    between atoms: _260  and  _261
REMARK  109  A    between atoms: _265  and  _267
REMARK  110  A    between atoms: _267  and  _268
REMARK  111  A    between atoms: _267  and  _270
REMARK  112  A    between atoms: _270  and  _271
REMARK  113  A    between atoms: _277  and  _279
REMARK  114  A    between atoms: _279  and  _280
REMARK  115  A    between atoms: _279  and  _282
REMARK  116  A    between atoms: _282  and  _283
REMARK                            x       y       z     vdW  Elec       q    Type
REMARK                         _______ _______ _______ _____ _____    ______ ____
ROOT
ATOM      1  C   ILE A   5      12.441 -45.671  37.373  0.00  0.00    +0.241 C 
ATOM      2  O   ILE A   5      12.581 -46.573  38.186  0.00  0.00    -0.273 OA
ATOM      3  N   LYS A   6      12.873 -45.770  36.118  0.00  0.00    -0.297 N 
ATOM      4  H   LYS A   6      12.700 -44.980  35.465  0.00  0.00    +0.150 HD
ENDROOT
BRANCH   3   5
ATOM      5  CA  LYS A   6      13.579 -46.945  35.627  0.00  0.00    +0.149 C 
BRANCH   5   6
ATOM      6  C   LYS A   6      14.889 -47.010  36.296  0.00  0.00    +0.241 C 
ATOM      7  O   LYS A   6      15.374 -48.086  36.646  0.00  0.00    -0.273 OA
ATOM      8  N   LYS A   7      15.480 -45.835  36.496  0.00  0.00    -0.297 N 
ATOM      9  H   LYS A   7      14.979 -44.979  36.184  0.00  0.00    +0.150 HD
BRANCH   8  10
ATOM     10  CA  LYS A   7      16.788 -45.671  37.126  0.00  0.00    +0.149 C 
BRANCH  10  11
ATOM     11  C   LYS A   7      16.752 -45.826  38.593  0.00  0.00    +0.241 C 
ATOM     12  N   TRP A   8      15.703 -45.306  39.222  0.00  0.00    -0.297 N 
ATOM     13  H   TRP A   8      14.974 -44.820  38.662  0.00  0.00    +0.150 HD
ATOM     14  O   LYS A   7      17.663 -46.392  39.179  0.00  0.00    -0.273 OA
BRANCH  12  15
ATOM     15  CA  TRP A   8      15.536 -45.392  40.673  0.00  0.00    +0.153 C 
BRANCH  15  16
ATOM     16  C   TRP A   8      15.073 -46.722  41.108  0.00  0.00    +0.241 C 
ATOM     17  O   TRP A   8      15.248 -47.112  42.260  0.00  0.00    -0.273 OA
ATOM     18  N   GLN A   9      14.467 -47.458  40.192  0.00  0.00    -0.297 N 
ATOM     19  H   GLN A   9      14.331 -47.072  39.236  0.00  0.00    +0.150 HD
BRANCH  18  20
ATOM     20  CA  GLN A   9      13.991 -48.783  40.491  0.00  0.00    +0.149 C 
BRANCH  20  21
ATOM     21  C   GLN A   9      15.141 -49.689  40.622  0.00  0.00    +0.241 C 
ATOM     22  O   GLN A   9      15.160 -50.558  41.489  0.00  0.00    -0.273 OA
ATOM     23  N   ALA A  10      16.147 -49.476  39.773  0.00  0.00    -0.298 N 
ATOM     24  H   ALA A  10      16.055 -48.696  39.092  0.00  0.00    +0.150 HD
BRANCH  23  25
ATOM     25  CA  ALA A  10      17.382 -50.281  39.743  0.00  0.00    +0.137 C 
ATOM     26  CB  ALA A  10      18.141 -50.041  38.444  0.00  0.00    +0.030 C 
BRANCH  25  27
ATOM     27  C   ALA A  10      18.271 -50.060  40.895  0.00  0.00    +0.227 C 
ATOM     28  O   ALA A  10      19.067 -50.934  41.220  0.00  0.00    -0.286 OA
ENDBRANCH  25  27
ENDBRANCH  23  25
ENDBRANCH  20  21
BRANCH  20  29
ATOM     29  CB  GLN A   9      13.061 -49.239  39.374  0.00  0.00    +0.039 C 
BRANCH  29  30
ATOM     30  CG  GLN A   9      12.604 -50.676  39.476  0.00  0.00    +0.087 C 
BRANCH  30  31
ATOM     31  CD  GLN A   9      13.226 -51.573  38.411  0.00  0.00    +0.219 C 
ATOM     32  NE2 GLN A   9      12.832 -52.845  38.420  0.00  0.00    -0.329 N 
ATOM     33 HE21 GLN A   9      12.153 -53.174  39.136  0.00  0.00    +0.145 HD
ATOM     34 HE22 GLN A   9      13.203 -53.509  37.711  0.00  0.00    +0.145 HD
ATOM     35  OE1 GLN A   9      14.037 -51.127  37.575  0.00  0.00    -0.275 OA
ENDBRANCH  30  31
ENDBRANCH  29  30
ENDBRANCH  20  29
ENDBRANCH  18  20
ENDBRANCH  15  16
BRANCH  15  36
ATOM     36  CB  TRP A   8      14.581 -44.307  41.155  0.00  0.00    +0.057 C 
BRANCH  36  37
ATOM     37  CG  TRP A   8      15.134 -42.939  40.994  0.00  0.00    -0.002 A 
ATOM     38  CD1 TRP A   8      16.454 -42.591  40.962  0.00  0.00    +0.068 A 
ATOM     39  NE1 TRP A   8      16.584 -41.225  40.841  0.00  0.00    -0.352 N 
ATOM     40  HE1 TRP A   8      17.482 -40.702  40.798  0.00  0.00    +0.166 HD
ATOM     41  CE2 TRP A   8      15.329 -40.668  40.787  0.00  0.00    +0.056 A 
ATOM     42  CZ2 TRP A   8      14.940 -39.328  40.664  0.00  0.00    +0.017 A 
ATOM     43  CH2 TRP A   8      13.599 -39.056  40.635  0.00  0.00    +0.001 A 
ATOM     44  CZ3 TRP A   8      12.655 -40.064  40.724  0.00  0.00    +0.000 A 
ATOM     45  CE3 TRP A   8      13.033 -41.405  40.849  0.00  0.00    +0.001 A 
ATOM     46  CD2 TRP A   8      14.395 -41.718  40.881  0.00  0.00    +0.013 A 
ENDBRANCH  36  37
ENDBRANCH  15  36
ENDBRANCH  12  15
ENDBRANCH  10  11
BRANCH  10  47
ATOM     47  CB  LYS A   7      17.333 -44.286  36.765  0.00  0.00    +0.029 C 
BRANCH  47  48
ATOM     48  CG  LYS A   7      18.621 -43.913  37.455  0.00  0.00    +0.000 C 
BRANCH  48  49
ATOM     49  CD  LYS A   7      18.685 -42.406  37.704  0.00  0.00    -0.024 C 
BRANCH  49  50
ATOM     50  CE  LYS A   7      19.746 -42.065  38.754  0.00  0.00    -0.086 C 
BRANCH  50  51
ATOM     51  NZ  LYS A   7      19.569 -40.661  39.206  0.00  0.00    +0.380 N 
ATOM     52  HZ1 LYS A   7      20.291 -40.434  39.919  0.00  0.00    -0.089 HD
ATOM     53  HZ2 LYS A   7      18.622 -40.549  39.622  0.00  0.00    -0.089 HD
ATOM     54  HZ3 LYS A   7      19.670 -40.021  38.393  0.00  0.00    -0.089 HD
ENDBRANCH  50  51
ENDBRANCH  49  50
ENDBRANCH  48  49
ENDBRANCH  47  48
ENDBRANCH  10  47
ENDBRANCH   8  10
ENDBRANCH   5   6
BRANCH   5  55
ATOM     55  CB  LYS A   6      13.812 -46.826  34.120  0.00  0.00    +0.029 C 
BRANCH  55  56
ATOM     56  CG  LYS A   6      12.557 -46.835  33.248  0.00  0.00    +0.000 C 
BRANCH  56  57
ATOM     57  CD  LYS A   6      12.846 -46.196  31.872  0.00  0.00    -0.024 C 
BRANCH  57  58
ATOM     58  CE  LYS A   6      13.358 -47.181  30.845  0.00  0.00    -0.086 C 
BRANCH  58  59
ATOM     59  NZ  LYS A   6      12.317 -48.205  30.536  0.00  0.00    +0.380 N 
ATOM     60  HZ1 LYS A   6      12.071 -48.720  31.405  0.00  0.00    -0.089 HD
ATOM     61  HZ2 LYS A   6      11.470 -47.734  30.159  0.00  0.00    -0.089 HD
ATOM     62  HZ3 LYS A   6      12.687 -48.872  29.829  0.00  0.00    -0.089 HD
ENDBRANCH  58  59
ENDBRANCH  57  58
ENDBRANCH  56  57
ENDBRANCH  55  56
ENDBRANCH   5  55
ENDBRANCH   3   5
BRANCH   1  63
ATOM     63  CA  ILE A   5      11.753 -44.414  37.757  0.00  0.00    +0.149 C 
BRANCH  63  66
ATOM     64  C   ASN A   4      13.608 -42.875  37.251  0.00  0.00    +0.241 C 
ATOM     65  O   ASN A   4      14.406 -43.497  37.929  0.00  0.00    -0.273 OA
ATOM     66  N   ILE A   5      12.332 -43.236  37.109  0.00  0.00    -0.297 N 
ATOM     67  H   ILE A   5      11.717 -42.651  36.508  0.00  0.00    +0.150 HD
BRANCH  64  68
ATOM     68  CA  ASN A   4      14.043 -41.671  36.514  0.00  0.00    +0.158 C 
BRANCH  68  70
ATOM     69  C   ASN A   3      13.989 -42.652  34.234  0.00  0.00    +0.241 C 
ATOM     70  N   ASN A   4      13.603 -41.719  35.115  0.00  0.00    -0.297 N 
ATOM     71  H   ASN A   4      12.949 -40.981  34.786  0.00  0.00    +0.150 HD
ATOM     72  O   ASN A   3      14.823 -43.519  34.478  0.00  0.00    -0.273 OA
BRANCH  69  73
ATOM     73  CA  ASN A   3      13.419 -42.547  32.880  0.00  0.00    +0.158 C 
BRANCH  73  76
ATOM     74  C   TRP A   2      11.074 -43.050  33.436  0.00  0.00    +0.241 C 
ATOM     75  O   TRP A   2      11.368 -44.132  33.960  0.00  0.00    -0.273 OA
ATOM     76  N   ASN A   3      11.980 -42.241  32.890  0.00  0.00    -0.297 N 
ATOM     77  H   ASN A   3      11.656 -41.355  32.452  0.00  0.00    +0.150 HD
BRANCH  74  78
ATOM     78  CA  TRP A   2       9.662 -42.617  33.372  0.00  0.00    +0.153 C 
BRANCH  78  81
ATOM     79  C   LEU A   1       9.814 -40.609  34.713  0.00  0.00    +0.238 C 
ATOM     80  O   LEU A   1      10.367 -41.220  35.603  0.00  0.00    -0.274 OA
ATOM     81  N   TRP A   2       9.455 -41.197  33.587  0.00  0.00    -0.297 N 
ATOM     82  H   TRP A   2       9.013 -40.629  32.836  0.00  0.00    +0.150 HD
BRANCH  79  83
ATOM     83  CA  LEU A   1       9.542 -39.159  34.846  0.00  0.00    +0.145 C 
BRANCH  83  84
ATOM     84  N   LEU A   1      10.035 -38.394  33.704  0.00  0.00    -0.238 NA
ATOM     85  H   LEU A   1       9.356 -37.871  33.115  0.00  0.00    +0.142 HD
ENDBRANCH  83  84
BRANCH  83  86
ATOM     86  CB  LEU A   1       8.032 -38.923  35.052  0.00  0.00    +0.026 C 
BRANCH  86  87
ATOM     87  CG  LEU A   1       7.372 -39.678  36.224  0.00  0.00    +0.002 C 
ATOM     88  CD2 LEU A   1       8.019 -39.242  37.549  0.00  0.00    +0.000 C 
ATOM     89  CD1 LEU A   1       5.859 -39.464  36.258  0.00  0.00    +0.000 C 
ENDBRANCH  86  87
ENDBRANCH  83  86
ENDBRANCH  79  83
ENDBRANCH  78  81
BRANCH  78  90
ATOM     90  CB  TRP A   2       9.029 -43.020  32.040  0.00  0.00    +0.057 C 
BRANCH  90  91
ATOM     91  CG  TRP A   2       8.865 -44.499  31.850  0.00  0.00    -0.002 A 
ATOM     92  CD2 TRP A   2       7.956 -45.360  32.543  0.00  0.00    +0.013 A 
ATOM     93  CE3 TRP A   2       7.020 -45.167  33.564  0.00  0.00    +0.001 A 
ATOM     94  CZ3 TRP A   2       6.301 -46.258  34.019  0.00  0.00    +0.000 A 
ATOM     95  CH2 TRP A   2       6.498 -47.543  33.468  0.00  0.00    +0.001 A 
ATOM     96  CZ2 TRP A   2       7.405 -47.758  32.464  0.00  0.00    +0.017 A 
ATOM     97  CE2 TRP A   2       8.132 -46.654  32.010  0.00  0.00    +0.056 A 
ATOM     98  NE1 TRP A   2       9.100 -46.574  31.049  0.00  0.00    -0.352 N 
ATOM     99  HE1 TRP A   2       9.450 -47.369  30.476  0.00  0.00    +0.166 HD
ATOM    100  CD1 TRP A   2       9.534 -45.281  30.962  0.00  0.00    +0.068 A 
ENDBRANCH  90  91
ENDBRANCH  78  90
ENDBRANCH  74  78
ENDBRANCH  73  76
BRANCH  73 101
ATOM    101  CB  ASN A   3      14.197 -41.482  32.113  0.00  0.00    +0.114 C 
BRANCH 101 102
ATOM    102  CG  ASN A   3      14.197 -41.721  30.628  0.00  0.00    +0.222 C 
ATOM    103  OD1 ASN A   3      13.994 -42.852  30.160  0.00  0.00    -0.275 OA
ATOM    104  ND2 ASN A   3      14.445 -40.660  29.863  0.00  0.00    -0.329 N 
ATOM    105 HD21 ASN A   3      14.609 -39.731  30.300  0.00  0.00    +0.145 HD
ATOM    106 HD22 ASN A   3      14.474 -40.760  28.828  0.00  0.00    +0.145 HD
ENDBRANCH 101 102
ENDBRANCH  73 101
ENDBRANCH  69  73
ENDBRANCH  68  70
BRANCH  68 107
ATOM    107  CB  ASN A   4      13.467 -40.436  37.193  0.00  0.00    +0.114 C 
BRANCH 107 108
ATOM    108  CG  ASN A   4      14.256 -39.201  36.908  0.00  0.00    +0.222 C 
ATOM    109  ND2 ASN A   4      13.591 -38.062  36.920  0.00  0.00    -0.329 N 
ATOM    110 HD21 ASN A   4      12.564 -38.061  37.085  0.00  0.00    +0.145 HD
ATOM    111 HD22 ASN A   4      14.093 -37.165  36.764  0.00  0.00    +0.145 HD
ATOM    112  OD1 ASN A   4      15.461 -39.258  36.719  0.00  0.00    -0.275 OA
ENDBRANCH 107 108
ENDBRANCH  68 107
ENDBRANCH  64  68
ENDBRANCH  63  66
BRANCH  63 113
ATOM    113  CB  ILE A   5      10.220 -44.526  37.464  0.00  0.00    +0.027 C 
ATOM    114  CG2 ILE A   5       9.707 -45.879  37.809  0.00  0.00    +0.002 C 
BRANCH 113 115
ATOM    115  CG1 ILE A   5       9.441 -43.466  38.260  0.00  0.00    +0.002 C 
ATOM    116  CD1 ILE A   5       7.939 -43.458  37.992  0.00  0.00    +0.000 C 
ENDBRANCH 113 115
ENDBRANCH  63 113
ENDBRANCH   1  63
TORSDOF 45
REMARK  Name = ../refined-set-2016/1alw/1alw_pocket.pdb
REMARK  116 active torsions:
REMARK  status: ('A' for Active; 'I' for Inactive)
REMARK    1  A    between atoms: _1  and  _3
REMARK    2  A    between atoms: _3  and  _4
REMARK    3  A    between atoms: _3  and  _6
REMARK    4  A    between atoms: _6  and  _7
REMARK    5  A    between atoms: _7  and  _8
REMARK    6  A    between atoms: _13  and  _15
REMARK    7  A    between atoms: _15  and  _16
REMARK    8  A    between atoms: _15  and  _18
REMARK    9  A    between atoms: _18  and  _19
REMARK   10  A    between atoms: _22  and  _24
REMARK   11  A    between atoms: _24  and  _25
REMARK   12  A    between atoms: _24  and  _27
REMARK   13  A    between atoms: _27  and  _28
REMARK   14  A    between atoms: _31  and  _33
REMARK   15  A    between atoms: _33  and  _34
REMARK   16  A    between atoms: _33  and  _36
REMARK   17  A    between atoms: _36  and  _37
REMARK   18  A    between atoms: _40  and  _42
REMARK   19  A    between atoms: _42  and  _43
REMARK   20  A    between atoms: _42  and  _45
REMARK   21  A    between atoms: _45  and  _46
REMARK   22  A    between atoms: _46  and  _47
REMARK   23  A    between atoms: _47  and  _48
REMARK   24  A    between atoms: _48  and  _49
REMARK   25  A    between atoms: _53  and  _55
REMARK   26  A    between atoms: _55  and  _56
REMARK   27  A    between atoms: _55  and  _58
REMARK   28  A    between atoms: _61  and  _63
REMARK   29  A    between atoms: _63  and  _64
REMARK   30  A    between atoms: _63  and  _66
REMARK   31  A    between atoms: _69  and  _71
REMARK   32  A    between atoms: _71  and  _72
REMARK   33  A    between atoms: _71  and  _74
REMARK   34  A    between atoms: _74  and  _75
REMARK   35  A    between atoms: _78  and  _80
REMARK   36  A    between atoms: _80  and  _81
REMARK   37  A    between atoms: _80  and  _83
REMARK   38  A    between atoms: _83  and  _84
REMARK   39  A    between atoms: _84  and  _85
REMARK   40  A    between atoms: _85  and  _86
REMARK   41  A    between atoms: _95  and  _97
REMARK   42  A    between atoms: _97  and  _98
REMARK   43  A    between atoms: _97  and  _100
REMARK   44  A    between atoms: _100  and  _101
REMARK   45  A    between atoms: _106  and  _108
REMARK   46  A    between atoms: _108  and  _109
REMARK   47  A    between atoms: _108  and  _111
REMARK   48  A    between atoms: _111  and  _112
REMARK   49  A    between atoms: _115  and  _117
REMARK   50  A    between atoms: _117  and  _118
REMARK   51  A    between atoms: _117  and  _120
REMARK   52  A    between atoms: _120  and  _121
REMARK   53  A    between atoms: _124  and  _126
REMARK   54  A    between atoms: _126  and  _127
REMARK   55  A    between atoms: _126  and  _129
REMARK   56  A    between atoms: _129  and  _130
REMARK   57  A    between atoms: _136  and  _138
REMARK   58  A    between atoms: _138  and  _139
REMARK   59  A    between atoms: _138  and  _141
REMARK   60  A    between atoms: _141  and  _142
REMARK   61  A    between atoms: _145  and  _147
REMARK   62  A    between atoms: _147  and  _148
REMARK   63  A    between atoms: _147  and  _150
REMARK   64  A    between atoms: _150  and  _151
REMARK   65  A    between atoms: _161  and  _163
REMARK   66  A    between atoms: _163  and  _164
REMARK   67  A    between atoms: _163  and  _166
REMARK   68  A    between atoms: _166  and  _167
REMARK   69  A    between atoms: _172  and  _174
REMARK   70  A    between atoms: _174  and  _175
REMARK   71  A    between atoms: _174  and  _177
REMARK   72  A    between atoms: _177  and  _178
REMARK   73  A    between atoms: _183  and  _185
REMARK   74  A    between atoms: _185  and  _186
REMARK   75  A    between atoms: _185  and  _188
REMARK   76  A    between atoms: _188  and  _189
REMARK   77  A    between atoms: _192  and  _194
REMARK   78  A    between atoms: _194  and  _195
REMARK   79  A    between atoms: _194  and  _197
REMARK   80  A    between atoms: _197  and  _198
REMARK   81  A    between atoms: _198  and  _199
REMARK   82  A    between atoms: _199  and  _200
REMARK   83  A    between atoms: _200  and  _201
REMARK   84  A    between atoms: _205  and  _207
REMARK   85  A    between atoms: _207  and  _208
REMARK   86  A    between atoms: _207  and  _210
REMARK   87  A    between atoms: _210  and  _211
REMARK   88  A    between atoms: _211  and  _212
REMARK   89  A    between atoms: _212  and  _213
REMARK   90  A    between atoms: _213  and  _214
REMARK   91  A    between atoms: _218  and  _220
REMARK   92  A    between atoms: _220  and  _221
REMARK   93  A    between atoms: _220  and  _223
REMARK   94  A    between atoms: _223  and  _224
REMARK   95  A    between atoms: _234  and  _236
REMARK   96  A    between atoms: _236  and  _237
REMARK   97  A    between atoms: _236  and  _239
REMARK   98  A    between atoms: _239  and  _240
REMARK   99  A    between atoms: _240  and  _241
REMARK  100  A    between atoms: _246  and  _248
REMARK  101  A    between atoms: _248  and  _249
REMARK  102  A    between atoms: _252  and  _254
REMARK  103  A    between atoms: _254  and  _255
REMARK  104  A    between atoms: _254  and  _257
REMARK  105  A    between atoms: _257  and  _258
REMARK  106  A    between atoms: _258  and  _259
REMARK  107  A    between atoms: _259  and  _260
REMARK  108  A    between atoms: _260  and  _261
REMARK  109  A    between atoms: _265  and  _267
REMARK  110  A    between atoms: _267  and  _268
REMARK  111  A    between atoms: _267  and  _270
REMARK  112  A    between atoms: _270  and  _271
REMARK  113  A    between atoms: _277  and  _279
REMARK  114  A    between atoms: _279  and  _280
REMARK  115  A    between atoms: _279  and  _282
REMARK  116  A    between atoms: _282  and  _283
REMARK                            x       y       z     vdW  Elec       q    Type
REMARK                         _______ _______ _______ _____ _____    ______ ____
ROOT
ATOM      1  CG  LYS A   1      15.337 -53.786  42.480  0.00  0.00    -0.000 C 
ENDROOT
BRANCH   1   2
ATOM      2  CB  LYS A   1      16.762 -53.911  42.934  0.00  0.00    +0.025 C 
BRANCH   2   3
ATOM      3  CA  LYS A   1      17.046 -53.249  44.273  0.00  0.00    +0.133 C 
BRANCH   3   4
ATOM      4  N   LYS A   1      16.702 -51.833  44.211  0.00  0.00    -0.239 NA
ATOM      5  H   LYS A   1      16.516 -51.414  43.277  0.00  0.00    +0.142 HD
ENDBRANCH   3   4
BRANCH   3   6
ATOM      6  C   LYS A   1      18.438 -53.553  44.644  0.00  0.00    +0.224 C 
ATOM      7  O   LYS A   1      18.695 -54.566  45.287  0.00  0.00    -0.287 OA
ENDBRANCH   3   6
ENDBRANCH   2   3
ENDBRANCH   1   2
BRANCH   1   8
ATOM      8  CD  LYS A   1      15.090 -54.675  41.281  0.00  0.00    -0.024 C 
BRANCH   8   9
ATOM      9  CE  LYS A   1      13.682 -54.506  40.756  0.00  0.00    -0.086 C 
BRANCH   9  10
ATOM     10  NZ  LYS A   1      13.510 -55.226  39.454  0.00  0.00    +0.380 N 
ATOM     11  HZ1 LYS A   1      13.698 -56.240  39.592  0.00  0.00    -0.089 HD
ATOM     12  HZ2 LYS A   1      12.536 -55.096  39.113  0.00  0.00    -0.089 HD
ATOM     13  HZ3 LYS A   1      14.177 -54.841  38.756  0.00  0.00    -0.089 HD
ENDBRANCH   9  10
ENDBRANCH   8   9
ENDBRANCH   1   8
TORSDOF 7
REMARK  Name = ../refined-set-2016/1alw/1alw_pocket.pdb
REMARK  116 active torsions:
REMARK  status: ('A' for Active; 'I' for Inactive)
REMARK    1  A    between atoms: _1  and  _3
REMARK    2  A    between atoms: _3  and  _4
REMARK    3  A    between atoms: _3  and  _6
REMARK    4  A    between atoms: _6  and  _7
REMARK    5  A    between atoms: _7  and  _8
REMARK    6  A    between atoms: _13  and  _15
REMARK    7  A    between atoms: _15  and  _16
REMARK    8  A    between atoms: _15  and  _18
REMARK    9  A    between atoms: _18  and  _19
REMARK   10  A    between atoms: _22  and  _24
REMARK   11  A    between atoms: _24  and  _25
REMARK   12  A    between atoms: _24  and  _27
REMARK   13  A    between atoms: _27  and  _28
REMARK   14  A    between atoms: _31  and  _33
REMARK   15  A    between atoms: _33  and  _34
REMARK   16  A    between atoms: _33  and  _36
REMARK   17  A    between atoms: _36  and  _37
REMARK   18  A    between atoms: _40  and  _42
REMARK   19  A    between atoms: _42  and  _43
REMARK   20  A    between atoms: _42  and  _45
REMARK   21  A    between atoms: _45  and  _46
REMARK   22  A    between atoms: _46  and  _47
REMARK   23  A    between atoms: _47  and  _48
REMARK   24  A    between atoms: _48  and  _49
REMARK   25  A    between atoms: _53  and  _55
REMARK   26  A    between atoms: _55  and  _56
REMARK   27  A    between atoms: _55  and  _58
REMARK   28  A    between atoms: _61  and  _63
REMARK   29  A    between atoms: _63  and  _64
REMARK   30  A    between atoms: _63  and  _66
REMARK   31  A    between atoms: _69  and  _71
REMARK   32  A    between atoms: _71  and  _72
REMARK   33  A    between atoms: _71  and  _74
REMARK   34  A    between atoms: _74  and  _75
REMARK   35  A    between atoms: _78  and  _80
REMARK   36  A    between atoms: _80  and  _81
REMARK   37  A    between atoms: _80  and  _83
REMARK   38  A    between atoms: _83  and  _84
REMARK   39  A    between atoms: _84  and  _85
REMARK   40  A    between atoms: _85  and  _86
REMARK   41  A    between atoms: _95  and  _97
REMARK   42  A    between atoms: _97  and  _98
REMARK   43  A    between atoms: _97  and  _100
REMARK   44  A    between atoms: _100  and  _101
REMARK   45  A    between atoms: _106  and  _108
REMARK   46  A    between atoms: _108  and  _109
REMARK   47  A    between atoms: _108  and  _111
REMARK   48  A    between atoms: _111  and  _112
REMARK   49  A    between atoms: _115  and  _117
REMARK   50  A    between atoms: _117  and  _118
REMARK   51  A    between atoms: _117  and  _120
REMARK   52  A    between atoms: _120  and  _121
REMARK   53  A    between atoms: _124  and  _126
REMARK   54  A    between atoms: _126  and  _127
REMARK   55  A    between atoms: _126  and  _129
REMARK   56  A    between atoms: _129  and  _130
REMARK   57  A    between atoms: _136  and  _138
REMARK   58  A    between atoms: _138  and  _139
REMARK   59  A    between atoms: _138  and  _141
REMARK   60  A    between atoms: _141  and  _142
REMARK   61  A    between atoms: _145  and  _147
REMARK   62  A    between atoms: _147  and  _148
REMARK   63  A    between atoms: _147  and  _150
REMARK   64  A    between atoms: _150  and  _151
REMARK   65  A    between atoms: _161  and  _163
REMARK   66  A    between atoms: _163  and  _164
REMARK   67  A    between atoms: _163  and  _166
REMARK   68  A    between atoms: _166  and  _167
REMARK   69  A    between atoms: _172  and  _174
REMARK   70  A    between atoms: _174  and  _175
REMARK   71  A    between atoms: _174  and  _177
REMARK   72  A    between atoms: _177  and  _178
REMARK   73  A    between atoms: _183  and  _185
REMARK   74  A    between atoms: _185  and  _186
REMARK   75  A    between atoms: _185  and  _188
REMARK   76  A    between atoms: _188  and  _189
REMARK   77  A    between atoms: _192  and  _194
REMARK   78  A    between atoms: _194  and  _195
REMARK   79  A    between atoms: _194  and  _197
REMARK   80  A    between atoms: _197  and  _198
REMARK   81  A    between atoms: _198  and  _199
REMARK   82  A    between atoms: _199  and  _200
REMARK   83  A    between atoms: _200  and  _201
REMARK   84  A    between atoms: _205  and  _207
REMARK   85  A    between atoms: _207  and  _208
REMARK   86  A    between atoms: _207  and  _210
REMARK   87  A    between atoms: _210  and  _211
REMARK   88  A    between atoms: _211  and  _212
REMARK   89  A    between atoms: _212  and  _213
REMARK   90  A    between atoms: _213  and  _214
REMARK   91  A    between atoms: _218  and  _220
REMARK   92  A    between atoms: _220  and  _221
REMARK   93  A    between atoms: _220  and  _223
REMARK   94  A    between atoms: _223  and  _224
REMARK   95  A    between atoms: _234  and  _236
REMARK   96  A    between atoms: _236  and  _237
REMARK   97  A    between atoms: _236  and  _239
REMARK   98  A    between atoms: _239  and  _240
REMARK   99  A    between atoms: _240  and  _241
REMARK  100  A    between atoms: _246  and  _248
REMARK  101  A    between atoms: _248  and  _249
REMARK  102  A    between atoms: _252  and  _254
REMARK  103  A    between atoms: _254  and  _255
REMARK  104  A    between atoms: _254  and  _257
REMARK  105  A    between atoms: _257  and  _258
REMARK  106  A    between atoms: _258  and  _259
REMARK  107  A    between atoms: _259  and  _260
REMARK  108  A    between atoms: _260  and  _261
REMARK  109  A    between atoms: _265  and  _267
REMARK  110  A    between atoms: _267  and  _268
REMARK  111  A    between atoms: _267  and  _270
REMARK  112  A    between atoms: _270  and  _271
REMARK  113  A    between atoms: _277  and  _279
REMARK  114  A    between atoms: _279  and  _280
REMARK  115  A    between atoms: _279  and  _282
REMARK  116  A    between atoms: _282  and  _283
REMARK                            x       y       z     vdW  Elec       q    Type
REMARK                         _______ _______ _______ _____ _____    ______ ____
ROOT
ATOM      1  CB  PHE A   1       8.391 -49.974  45.618  0.00  0.00    +0.051 C 
ENDROOT
BRANCH   1   2
ATOM      2  CG  PHE A   1       8.931 -49.613  44.264  0.00  0.00    -0.020 A 
ATOM      3  CD2 PHE A   1      10.304 -49.473  44.067  0.00  0.00    -0.004 A 
ATOM      4  CE2 PHE A   1      10.811 -49.083  42.845  0.00  0.00    -0.000 A 
ATOM      5  CZ  PHE A   1       9.945 -48.827  41.791  0.00  0.00    -0.000 A 
ATOM      6  CE1 PHE A   1       8.580 -48.964  41.965  0.00  0.00    -0.000 A 
ATOM      7  CD1 PHE A   1       8.074 -49.357  43.199  0.00  0.00    -0.004 A 
ENDBRANCH   1   2
BRANCH   1   8
ATOM      8  CA  PHE A   1       8.619 -48.892  46.671  0.00  0.00    +0.137 C 
BRANCH   8   9
ATOM      9  N   PHE A   1       8.422 -49.437  48.020  0.00  0.00    -0.239 NA
ATOM     10  H   PHE A   1       8.089 -50.418  48.117  0.00  0.00    +0.142 HD
ENDBRANCH   8   9
BRANCH   8  11
ATOM     11  C   PHE A   1       7.906 -47.630  46.292  0.00  0.00    +0.224 C 
ATOM     12  O   PHE A   1       8.545 -46.692  45.822  0.00  0.00    -0.287 OA
ENDBRANCH   8  11
ENDBRANCH   1   8
TORSDOF 4
REMARK  Name = ../refined-set-2016/1alw/1alw_pocket.pdb
REMARK  116 active torsions:
REMARK  status: ('A' for Active; 'I' for Inactive)
REMARK    1  A    between atoms: _1  and  _3
REMARK    2  A    between atoms: _3  and  _4
REMARK    3  A    between atoms: _3  and  _6
REMARK    4  A    between atoms: _6  and  _7
REMARK    5  A    between atoms: _7  and  _8
REMARK    6  A    between atoms: _13  and  _15
REMARK    7  A    between atoms: _15  and  _16
REMARK    8  A    between atoms: _15  and  _18
REMARK    9  A    between atoms: _18  and  _19
REMARK   10  A    between atoms: _22  and  _24
REMARK   11  A    between atoms: _24  and  _25
REMARK   12  A    between atoms: _24  and  _27
REMARK   13  A    between atoms: _27  and  _28
REMARK   14  A    between atoms: _31  and  _33
REMARK   15  A    between atoms: _33  and  _34
REMARK   16  A    between atoms: _33  and  _36
REMARK   17  A    between atoms: _36  and  _37
REMARK   18  A    between atoms: _40  and  _42
REMARK   19  A    between atoms: _42  and  _43
REMARK   20  A    between atoms: _42  and  _45
REMARK   21  A    between atoms: _45  and  _46
REMARK   22  A    between atoms: _46  and  _47
REMARK   23  A    between atoms: _47  and  _48
REMARK   24  A    between atoms: _48  and  _49
REMARK   25  A    between atoms: _53  and  _55
REMARK   26  A    between atoms: _55  and  _56
REMARK   27  A    between atoms: _55  and  _58
REMARK   28  A    between atoms: _61  and  _63
REMARK   29  A    between atoms: _63  and  _64
REMARK   30  A    between atoms: _63  and  _66
REMARK   31  A    between atoms: _69  and  _71
REMARK   32  A    between atoms: _71  and  _72
REMARK   33  A    between atoms: _71  and  _74
REMARK   34  A    between atoms: _74  and  _75
REMARK   35  A    between atoms: _78  and  _80
REMARK   36  A    between atoms: _80  and  _81
REMARK   37  A    between atoms: _80  and  _83
REMARK   38  A    between atoms: _83  and  _84
REMARK   39  A    between atoms: _84  and  _85
REMARK   40  A    between atoms: _85  and  _86
REMARK   41  A    between atoms: _95  and  _97
REMARK   42  A    between atoms: _97  and  _98
REMARK   43  A    between atoms: _97  and  _100
REMARK   44  A    between atoms: _100  and  _101
REMARK   45  A    between atoms: _106  and  _108
REMARK   46  A    between atoms: _108  and  _109
REMARK   47  A    between atoms: _108  and  _111
REMARK   48  A    between atoms: _111  and  _112
REMARK   49  A    between atoms: _115  and  _117
REMARK   50  A    between atoms: _117  and  _118
REMARK   51  A    between atoms: _117  and  _120
REMARK   52  A    between atoms: _120  and  _121
REMARK   53  A    between atoms: _124  and  _126
REMARK   54  A    between atoms: _126  and  _127
REMARK   55  A    between atoms: _126  and  _129
REMARK   56  A    between atoms: _129  and  _130
REMARK   57  A    between atoms: _136  and  _138
REMARK   58  A    between atoms: _138  and  _139
REMARK   59  A    between atoms: _138  and  _141
REMARK   60  A    between atoms: _141  and  _142
REMARK   61  A    between atoms: _145  and  _147
REMARK   62  A    between atoms: _147  and  _148
REMARK   63  A    between atoms: _147  and  _150
REMARK   64  A    between atoms: _150  and  _151
REMARK   65  A    between atoms: _161  and  _163
REMARK   66  A    between atoms: _163  and  _164
REMARK   67  A    between atoms: _163  and  _166
REMARK   68  A    between atoms: _166  and  _167
REMARK   69  A    between atoms: _172  and  _174
REMARK   70  A    between atoms: _174  and  _175
REMARK   71  A    between atoms: _174  and  _177
REMARK   72  A    between atoms: _177  and  _178
REMARK   73  A    between atoms: _183  and  _185
REMARK   74  A    between atoms: _185  and  _186
REMARK   75  A    between atoms: _185  and  _188
REMARK   76  A    between atoms: _188  and  _189
REMARK   77  A    between atoms: _192  and  _194
REMARK   78  A    between atoms: _194  and  _195
REMARK   79  A    between atoms: _194  and  _197
REMARK   80  A    between atoms: _197  and  _198
REMARK   81  A    between atoms: _198  and  _199
REMARK   82  A    between atoms: _199  and  _200
REMARK   83  A    between atoms: _200  and  _201
REMARK   84  A    between atoms: _205  and  _207
REMARK   85  A    between atoms: _207  and  _208
REMARK   86  A    between atoms: _207  and  _210
REMARK   87  A    between atoms: _210  and  _211
REMARK   88  A    between atoms: _211  and  _212
REMARK   89  A    between atoms: _212  and  _213
REMARK   90  A    between atoms: _213  and  _214
REMARK   91  A    between atoms: _218  and  _220
REMARK   92  A    between atoms: _220  and  _221
REMARK   93  A    between atoms: _220  and  _223
REMARK   94  A    between atoms: _223  and  _224
REMARK   95  A    between atoms: _234  and  _236
REMARK   96  A    between atoms: _236  and  _237
REMARK   97  A    between atoms: _236  and  _239
REMARK   98  A    between atoms: _239  and  _240
REMARK   99  A    between atoms: _240  and  _241
REMARK  100  A    between atoms: _246  and  _248
REMARK  101  A    between atoms: _248  and  _249
REMARK  102  A    between atoms: _252  and  _254
REMARK  103  A    between atoms: _254  and  _255
REMARK  104  A    between atoms: _254  and  _257
REMARK  105  A    between atoms: _257  and  _258
REMARK  106  A    between atoms: _258  and  _259
REMARK  107  A    between atoms: _259  and  _260
REMARK  108  A    between atoms: _260  and  _261
REMARK  109  A    between atoms: _265  and  _267
REMARK  110  A    between atoms: _267  and  _268
REMARK  111  A    between atoms: _267  and  _270
REMARK  112  A    between atoms: _270  and  _271
REMARK  113  A    between atoms: _277  and  _279
REMARK  114  A    between atoms: _279  and  _280
REMARK  115  A    between atoms: _279  and  _282
REMARK  116  A    between atoms: _282  and  _283
REMARK                            x       y       z     vdW  Elec       q    Type
REMARK                         _______ _______ _______ _____ _____    ______ ____
ROOT
ATOM      1  CA  ILE A   1       9.695 -43.308  44.207  0.00  0.00    +0.133 C 
ENDROOT
BRANCH   1   2
ATOM      2  N   ILE A   1       9.826 -44.041  45.462  0.00  0.00    -0.239 NA
ATOM      3  H   ILE A   1       9.291 -44.924  45.587  0.00  0.00    +0.142 HD
ENDBRANCH   1   2
BRANCH   1   4
ATOM      4  C   ILE A   1       9.072 -41.984  44.448  0.00  0.00    +0.224 C 
ATOM      5  O   ILE A   1       9.584 -40.968  43.976  0.00  0.00    -0.287 OA
ENDBRANCH   1   4
BRANCH   1   6
ATOM      6  CB  ILE A   1       8.874 -44.122  43.181  0.00  0.00    +0.023 C 
ATOM      7  CG2 ILE A   1       8.503 -43.286  41.977  0.00  0.00    +0.002 C 
BRANCH   6   8
ATOM      8  CG1 ILE A   1       9.681 -45.337  42.719  0.00  0.00    +0.002 C 
ATOM      9  CD1 ILE A   1      11.001 -45.004  42.047  0.00  0.00    +0.000 C 
ENDBRANCH   6   8
ENDBRANCH   1   6
TORSDOF 4
REMARK  Name = ../refined-set-2016/1alw/1alw_pocket.pdb
REMARK  116 active torsions:
REMARK  status: ('A' for Active; 'I' for Inactive)
REMARK    1  A    between atoms: _1  and  _3
REMARK    2  A    between atoms: _3  and  _4
REMARK    3  A    between atoms: _3  and  _6
REMARK    4  A    between atoms: _6  and  _7
REMARK    5  A    between atoms: _7  and  _8
REMARK    6  A    between atoms: _13  and  _15
REMARK    7  A    between atoms: _15  and  _16
REMARK    8  A    between atoms: _15  and  _18
REMARK    9  A    between atoms: _18  and  _19
REMARK   10  A    between atoms: _22  and  _24
REMARK   11  A    between atoms: _24  and  _25
REMARK   12  A    between atoms: _24  and  _27
REMARK   13  A    between atoms: _27  and  _28
REMARK   14  A    between atoms: _31  and  _33
REMARK   15  A    between atoms: _33  and  _34
REMARK   16  A    between atoms: _33  and  _36
REMARK   17  A    between atoms: _36  and  _37
REMARK   18  A    between atoms: _40  and  _42
REMARK   19  A    between atoms: _42  and  _43
REMARK   20  A    between atoms: _42  and  _45
REMARK   21  A    between atoms: _45  and  _46
REMARK   22  A    between atoms: _46  and  _47
REMARK   23  A    between atoms: _47  and  _48
REMARK   24  A    between atoms: _48  and  _49
REMARK   25  A    between atoms: _53  and  _55
REMARK   26  A    between atoms: _55  and  _56
REMARK   27  A    between atoms: _55  and  _58
REMARK   28  A    between atoms: _61  and  _63
REMARK   29  A    between atoms: _63  and  _64
REMARK   30  A    between atoms: _63  and  _66
REMARK   31  A    between atoms: _69  and  _71
REMARK   32  A    between atoms: _71  and  _72
REMARK   33  A    between atoms: _71  and  _74
REMARK   34  A    between atoms: _74  and  _75
REMARK   35  A    between atoms: _78  and  _80
REMARK   36  A    between atoms: _80  and  _81
REMARK   37  A    between atoms: _80  and  _83
REMARK   38  A    between atoms: _83  and  _84
REMARK   39  A    between atoms: _84  and  _85
REMARK   40  A    between atoms: _85  and  _86
REMARK   41  A    between atoms: _95  and  _97
REMARK   42  A    between atoms: _97  and  _98
REMARK   43  A    between atoms: _97  and  _100
REMARK   44  A    between atoms: _100  and  _101
REMARK   45  A    between atoms: _106  and  _108
REMARK   46  A    between atoms: _108  and  _109
REMARK   47  A    between atoms: _108  and  _111
REMARK   48  A    between atoms: _111  and  _112
REMARK   49  A    between atoms: _115  and  _117
REMARK   50  A    between atoms: _117  and  _118
REMARK   51  A    between atoms: _117  and  _120
REMARK   52  A    between atoms: _120  and  _121
REMARK   53  A    between atoms: _124  and  _126
REMARK   54  A    between atoms: _126  and  _127
REMARK   55  A    between atoms: _126  and  _129
REMARK   56  A    between atoms: _129  and  _130
REMARK   57  A    between atoms: _136  and  _138
REMARK   58  A    between atoms: _138  and  _139
REMARK   59  A    between atoms: _138  and  _141
REMARK   60  A    between atoms: _141  and  _142
REMARK   61  A    between atoms: _145  and  _147
REMARK   62  A    between atoms: _147  and  _148
REMARK   63  A    between atoms: _147  and  _150
REMARK   64  A    between atoms: _150  and  _151
REMARK   65  A    between atoms: _161  and  _163
REMARK   66  A    between atoms: _163  and  _164
REMARK   67  A    between atoms: _163  and  _166
REMARK   68  A    between atoms: _166  and  _167
REMARK   69  A    between atoms: _172  and  _174
REMARK   70  A    between atoms: _174  and  _175
REMARK   71  A    between atoms: _174  and  _177
REMARK   72  A    between atoms: _177  and  _178
REMARK   73  A    between atoms: _183  and  _185
REMARK   74  A    between atoms: _185  and  _186
REMARK   75  A    between atoms: _185  and  _188
REMARK   76  A    between atoms: _188  and  _189
REMARK   77  A    between atoms: _192  and  _194
REMARK   78  A    between atoms: _194  and  _195
REMARK   79  A    between atoms: _194  and  _197
REMARK   80  A    between atoms: _197  and  _198
REMARK   81  A    between atoms: _198  and  _199
REMARK   82  A    between atoms: _199  and  _200
REMARK   83  A    between atoms: _200  and  _201
REMARK   84  A    between atoms: _205  and  _207
REMARK   85  A    between atoms: _207  and  _208
REMARK   86  A    between atoms: _207  and  _210
REMARK   87  A    between atoms: _210  and  _211
REMARK   88  A    between atoms: _211  and  _212
REMARK   89  A    between atoms: _212  and  _213
REMARK   90  A    between atoms: _213  and  _214
REMARK   91  A    between atoms: _218  and  _220
REMARK   92  A    between atoms: _220  and  _221
REMARK   93  A    between atoms: _220  and  _223
REMARK   94  A    between atoms: _223  and  _224
REMARK   95  A    between atoms: _234  and  _236
REMARK   96  A    between atoms: _236  and  _237
REMARK   97  A    between atoms: _236  and  _239
REMARK   98  A    between atoms: _239  and  _240
REMARK   99  A    between atoms: _240  and  _241
REMARK  100  A    between atoms: _246  and  _248
REMARK  101  A    between atoms: _248  and  _249
REMARK  102  A    between atoms: _252  and  _254
REMARK  103  A    between atoms: _254  and  _255
REMARK  104  A    between atoms: _254  and  _257
REMARK  105  A    between atoms: _257  and  _258
REMARK  106  A    between atoms: _258  and  _259
REMARK  107  A    between atoms: _259  and  _260
REMARK  108  A    between atoms: _260  and  _261
REMARK  109  A    between atoms: _265  and  _267
REMARK  110  A    between atoms: _267  and  _268
REMARK  111  A    between atoms: _267  and  _270
REMARK  112  A    between atoms: _270  and  _271
REMARK  113  A    between atoms: _277  and  _279
REMARK  114  A    between atoms: _279  and  _280
REMARK  115  A    between atoms: _279  and  _282
REMARK  116  A    between atoms: _282  and  _283
REMARK                            x       y       z     vdW  Elec       q    Type
REMARK                         _______ _______ _______ _____ _____    ______ ____
ROOT
ATOM      1  O   HOH     1       8.818 -57.080  33.628  0.00  0.00    +0.000 OA
ENDROOT
TORSDOF 0
REMARK  Name = ../refined-set-2016/1alw/1alw_pocket.pdb
REMARK  116 active torsions:
REMARK  status: ('A' for Active; 'I' for Inactive)
REMARK    1  A    between atoms: _1  and  _3
REMARK    2  A    between atoms: _3  and  _4
REMARK    3  A    between atoms: _3  and  _6
REMARK    4  A    between atoms: _6  and  _7
REMARK    5  A    between atoms: _7  and  _8
REMARK    6  A    between atoms: _13  and  _15
REMARK    7  A    between atoms: _15  and  _16
REMARK    8  A    between atoms: _15  and  _18
REMARK    9  A    between atoms: _18  and  _19
REMARK   10  A    between atoms: _22  and  _24
REMARK   11  A    between atoms: _24  and  _25
REMARK   12  A    between atoms: _24  and  _27
REMARK   13  A    between atoms: _27  and  _28
REMARK   14  A    between atoms: _31  and  _33
REMARK   15  A    between atoms: _33  and  _34
REMARK   16  A    between atoms: _33  and  _36
REMARK   17  A    between atoms: _36  and  _37
REMARK   18  A    between atoms: _40  and  _42
REMARK   19  A    between atoms: _42  and  _43
REMARK   20  A    between atoms: _42  and  _45
REMARK   21  A    between atoms: _45  and  _46
REMARK   22  A    between atoms: _46  and  _47
REMARK   23  A    between atoms: _47  and  _48
REMARK   24  A    between atoms: _48  and  _49
REMARK   25  A    between atoms: _53  and  _55
REMARK   26  A    between atoms: _55  and  _56
REMARK   27  A    between atoms: _55  and  _58
REMARK   28  A    between atoms: _61  and  _63
REMARK   29  A    between atoms: _63  and  _64
REMARK   30  A    between atoms: _63  and  _66
REMARK   31  A    between atoms: _69  and  _71
REMARK   32  A    between atoms: _71  and  _72
REMARK   33  A    between atoms: _71  and  _74
REMARK   34  A    between atoms: _74  and  _75
REMARK   35  A    between atoms: _78  and  _80
REMARK   36  A    between atoms: _80  and  _81
REMARK   37  A    between atoms: _80  and  _83
REMARK   38  A    between atoms: _83  and  _84
REMARK   39  A    between atoms: _84  and  _85
REMARK   40  A    between atoms: _85  and  _86
REMARK   41  A    between atoms: _95  and  _97
REMARK   42  A    between atoms: _97  and  _98
REMARK   43  A    between atoms: _97  and  _100
REMARK   44  A    between atoms: _100  and  _101
REMARK   45  A    between atoms: _106  and  _108
REMARK   46  A    between atoms: _108  and  _109
REMARK   47  A    between atoms: _108  and  _111
REMARK   48  A    between atoms: _111  and  _112
REMARK   49  A    between atoms: _115  and  _117
REMARK   50  A    between atoms: _117  and  _118
REMARK   51  A    between atoms: _117  and  _120
REMARK   52  A    between atoms: _120  and  _121
REMARK   53  A    between atoms: _124  and  _126
REMARK   54  A    between atoms: _126  and  _127
REMARK   55  A    between atoms: _126  and  _129
REMARK   56  A    between atoms: _129  and  _130
REMARK   57  A    between atoms: _136  and  _138
REMARK   58  A    between atoms: _138  and  _139
REMARK   59  A    between atoms: _138  and  _141
REMARK   60  A    between atoms: _141  and  _142
REMARK   61  A    between atoms: _145  and  _147
REMARK   62  A    between atoms: _147  and  _148
REMARK   63  A    between atoms: _147  and  _150
REMARK   64  A    between atoms: _150  and  _151
REMARK   65  A    between atoms: _161  and  _163
REMARK   66  A    between atoms: _163  and  _164
REMARK   67  A    between atoms: _163  and  _166
REMARK   68  A    between atoms: _166  and  _167
REMARK   69  A    between atoms: _172  and  _174
REMARK   70  A    between atoms: _174  and  _175
REMARK   71  A    between atoms: _174  and  _177
REMARK   72  A    between atoms: _177  and  _178
REMARK   73  A    between atoms: _183  and  _185
REMARK   74  A    between atoms: _185  and  _186
REMARK   75  A    between atoms: _185  and  _188
REMARK   76  A    between atoms: _188  and  _189
REMARK   77  A    between atoms: _192  and  _194
REMARK   78  A    between atoms: _194  and  _195
REMARK   79  A    between atoms: _194  and  _197
REMARK   80  A    between atoms: _197  and  _198
REMARK   81  A    between atoms: _198  and  _199
REMARK   82  A    between atoms: _199  and  _200
REMARK   83  A    between atoms: _200  and  _201
REMARK   84  A    between atoms: _205  and  _207
REMARK   85  A    between atoms: _207  and  _208
REMARK   86  A    between atoms: _207  and  _210
REMARK   87  A    between atoms: _210  and  _211
REMARK   88  A    between atoms: _211  and  _212
REMARK   89  A    between atoms: _212  and  _213
REMARK   90  A    between atoms: _213  and  _214
REMARK   91  A    between atoms: _218  and  _220
REMARK   92  A    between atoms: _220  and  _221
REMARK   93  A    between atoms: _220  and  _223
REMARK   94  A    between atoms: _223  and  _224
REMARK   95  A    between atoms: _234  and  _236
REMARK   96  A    between atoms: _236  and  _237
REMARK   97  A    between atoms: _236  and  _239
REMARK   98  A    between atoms: _239  and  _240
REMARK   99  A    between atoms: _240  and  _241
REMARK  100  A    between atoms: _246  and  _248
REMARK  101  A    between atoms: _248  and  _249
REMARK  102  A    between atoms: _252  and  _254
REMARK  103  A    between atoms: _254  and  _255
REMARK  104  A    between atoms: _254  and  _257
REMARK  105  A    between atoms: _257  and  _258
REMARK  106  A    between atoms: _258  and  _259
REMARK  107  A    between atoms: _259  and  _260
REMARK  108  A    between atoms: _260  and  _261
REMARK  109  A    between atoms: _265  and  _267
REMARK  110  A    between atoms: _267  and  _268
REMARK  111  A    between atoms: _267  and  _270
REMARK  112  A    between atoms: _270  and  _271
REMARK  113  A    between atoms: _277  and  _279
REMARK  114  A    between atoms: _279  and  _280
REMARK  115  A    between atoms: _279  and  _282
REMARK  116  A    between atoms: _282  and  _283
REMARK                            x       y       z     vdW  Elec       q    Type
REMARK                         _______ _______ _______ _____ _____    ______ ____
ROOT
ATOM      1  O   HOH     1       9.039 -50.565  28.777  0.00  0.00    +0.000 OA
ENDROOT
TORSDOF 0
