REMARK  Name = ../refined-set-2016/4riv/4riv_pocket.pdb
REMARK  153 active torsions:
REMARK  status: ('A' for Active; 'I' for Inactive)
REMARK    1  A    between atoms: _1  and  _3
REMARK    2  A    between atoms: _3  and  _4
REMARK    3  A    between atoms: _3  and  _6
REMARK    4  A    between atoms: _6  and  _7
REMARK    5  A    between atoms: _17  and  _19
REMARK    6  A    between atoms: _19  and  _20
REMARK    7  A    between atoms: _19  and  _22
REMARK    8  A    between atoms: _22  and  _23
REMARK    9  A    between atoms: _28  and  _29
REMARK   10  A    between atoms: _31  and  _33
REMARK   11  A    between atoms: _33  and  _34
REMARK   12  A    between atoms: _33  and  _36
REMARK   13  A    between atoms: _36  and  _37
REMARK   14  A    between atoms: _47  and  _49
REMARK   15  A    between atoms: _49  and  _50
REMARK   16  A    between atoms: _49  and  _52
REMARK   17  A    between atoms: _52  and  _53
REMARK   18  A    between atoms: _56  and  _57
REMARK   19  A    between atoms: _62  and  _64
REMARK   20  A    between atoms: _64  and  _65
REMARK   21  A    between atoms: _64  and  _67
REMARK   22  A    between atoms: _67  and  _68
REMARK   23  A    between atoms: _73  and  _75
REMARK   24  A    between atoms: _75  and  _76
REMARK   25  A    between atoms: _75  and  _78
REMARK   26  A    between atoms: _78  and  _79
REMARK   27  A    between atoms: _84  and  _86
REMARK   28  A    between atoms: _86  and  _87
REMARK   29  A    between atoms: _86  and  _89
REMARK   30  A    between atoms: _89  and  _90
REMARK   31  A    between atoms: _92  and  _94
REMARK   32  A    between atoms: _94  and  _95
REMARK   33  A    between atoms: _94  and  _97
REMARK   34  A    between atoms: _97  and  _98
REMARK   35  A    between atoms: _98  and  _99
REMARK   36  A    between atoms: _104  and  _106
REMARK   37  A    between atoms: _106  and  _107
REMARK   38  A    between atoms: _106  and  _109
REMARK   39  A    between atoms: _109  and  _110
REMARK   40  A    between atoms: _113  and  _115
REMARK   41  A    between atoms: _115  and  _116
REMARK   42  A    between atoms: _115  and  _118
REMARK   43  A    between atoms: _118  and  _119
REMARK   44  A    between atoms: _119  and  _120
REMARK   45  A    between atoms: _125  and  _127
REMARK   46  A    between atoms: _127  and  _128
REMARK   47  A    between atoms: _127  and  _130
REMARK   48  A    between atoms: _130  and  _131
REMARK   49  A    between atoms: _137  and  _139
REMARK   50  A    between atoms: _150  and  _153
REMARK   51  A    between atoms: _153  and  _154
REMARK   52  A    between atoms: _162  and  _163
REMARK   53  A    between atoms: _171  and  _173
REMARK   54  A    between atoms: _173  and  _174
REMARK   55  A    between atoms: _173  and  _176
REMARK   56  A    between atoms: _176  and  _177
REMARK   57  A    between atoms: _177  and  _178
REMARK   58  A    between atoms: _181  and  _183
REMARK   59  A    between atoms: _183  and  _184
REMARK   60  A    between atoms: _183  and  _186
REMARK   61  A    between atoms: _186  and  _187
REMARK   62  A    between atoms: _192  and  _194
REMARK   63  A    between atoms: _194  and  _195
REMARK   64  A    between atoms: _194  and  _197
REMARK   65  A    between atoms: _197  and  _198
REMARK   66  A    between atoms: _198  and  _199
REMARK   67  A    between atoms: _202  and  _204
REMARK   68  A    between atoms: _204  and  _205
REMARK   69  A    between atoms: _204  and  _207
REMARK   70  A    between atoms: _207  and  _208
REMARK   71  A    between atoms: _211  and  _213
REMARK   72  A    between atoms: _213  and  _214
REMARK   73  A    between atoms: _213  and  _216
REMARK   74  A    between atoms: _216  and  _217
REMARK   75  A    between atoms: _218  and  ZN_431
REMARK   76  A    between atoms: _222  and  _224
REMARK   77  A    between atoms: _224  and  _225
REMARK   78  A    between atoms: _224  and  _227
REMARK   79  A    between atoms: _227  and  _228
REMARK   80  A    between atoms: _231  and  _233
REMARK   81  A    between atoms: _233  and  _234
REMARK   82  A    between atoms: _233  and  _236
REMARK   83  A    between atoms: _239  and  _241
REMARK   84  A    between atoms: _241  and  _242
REMARK   85  A    between atoms: _241  and  _244
REMARK   86  A    between atoms: _244  and  _245
REMARK   87  A    between atoms: _250  and  _252
REMARK   88  A    between atoms: _252  and  _253
REMARK   89  A    between atoms: _252  and  _255
REMARK   90  A    between atoms: _258  and  _260
REMARK   91  A    between atoms: _260  and  _261
REMARK   92  A    between atoms: _260  and  _263
REMARK   93  A    between atoms: _266  and  _268
REMARK   94  A    between atoms: _268  and  _269
REMARK   95  A    between atoms: _268  and  _271
REMARK   96  A    between atoms: _271  and  _272
REMARK   97  A    between atoms: _275  and  _277
REMARK   98  A    between atoms: _277  and  _278
REMARK   99  A    between atoms: _281  and  _283
REMARK  100  A    between atoms: _283  and  _284
REMARK  101  A    between atoms: _283  and  _286
REMARK  102  A    between atoms: _289  and  _291
REMARK  103  A    between atoms: _291  and  _292
REMARK  104  A    between atoms: _291  and  _294
REMARK  105  A    between atoms: _294  and  _295
REMARK  106  A    between atoms: _298  and  _300
REMARK  107  A    between atoms: _300  and  _301
REMARK  108  A    between atoms: _303  and  _305
REMARK  109  A    between atoms: _305  and  _306
REMARK  110  A    between atoms: _308  and  _310
REMARK  111  A    between atoms: _310  and  _311
REMARK  112  A    between atoms: _310  and  _313
REMARK  113  A    between atoms: _313  and  _314
REMARK  114  A    between atoms: _316  and  _318
REMARK  115  A    between atoms: _318  and  _319
REMARK  116  A    between atoms: _318  and  _321
REMARK  117  A    between atoms: _321  and  _322
REMARK  118  A    between atoms: _325  and  _327
REMARK  119  A    between atoms: _327  and  _328
REMARK  120  A    between atoms: _327  and  _330
REMARK  121  A    between atoms: _330  and  _331
REMARK  122  A    between atoms: _334  and  _336
REMARK  123  A    between atoms: _336  and  _337
REMARK  124  A    between atoms: _336  and  _339
REMARK  125  A    between atoms: _339  and  _340
REMARK  126  A    between atoms: _344  and  _345
REMARK  127  A    between atoms: _351  and  _352
REMARK  128  A    between atoms: _357  and  _359
REMARK  129  A    between atoms: _359  and  _360
REMARK  130  A    between atoms: _359  and  _362
REMARK  131  A    between atoms: _362  and  _363
REMARK  132  A    between atoms: _366  and  _368
REMARK  133  A    between atoms: _368  and  _369
REMARK  134  A    between atoms: _372  and  _374
REMARK  135  A    between atoms: _374  and  _375
REMARK  136  A    between atoms: _374  and  _377
REMARK  137  A    between atoms: _379  and  _381
REMARK  138  A    between atoms: _381  and  _382
REMARK  139  A    between atoms: _381  and  _384
REMARK  140  A    between atoms: _387  and  _389
REMARK  141  A    between atoms: _389  and  _390
REMARK  142  A    between atoms: _389  and  _392
REMARK  143  A    between atoms: _392  and  _393
REMARK  144  A    between atoms: _403  and  _405
REMARK  145  A    between atoms: _405  and  _406
REMARK  146  A    between atoms: _405  and  _408
REMARK  147  A    between atoms: _408  and  _409
REMARK  148  A    between atoms: _414  and  _416
REMARK  149  A    between atoms: _416  and  _417
REMARK  150  A    between atoms: _416  and  _419
REMARK  151  A    between atoms: _419  and  _420
REMARK  152  A    between atoms: _420  and  _421
REMARK  153  A    between atoms: _421  and  _422
REMARK                            x       y       z     vdW  Elec       q    Type
REMARK                         _______ _______ _______ _____ _____    ______ ____
ROOT
ATOM      1  CG  TRP A   1       9.770   0.182  82.008  0.00  0.00    -0.002 A 
ATOM      2  CD2 TRP A   1       8.411  -0.274  81.985  0.00  0.00    +0.013 A 
ATOM      3  CE3 TRP A   1       7.796  -1.508  82.239  0.00  0.00    +0.001 A 
ATOM      4  CZ3 TRP A   1       6.427  -1.598  82.123  0.00  0.00    +0.000 A 
ATOM      5  CH2 TRP A   1       5.651  -0.481  81.767  0.00  0.00    +0.001 A 
ATOM      6  CZ2 TRP A   1       6.224   0.732  81.512  0.00  0.00    +0.017 A 
ATOM      7  CE2 TRP A   1       7.604   0.827  81.630  0.00  0.00    +0.056 A 
ATOM      8  NE1 TRP A   1       8.432   1.903  81.445  0.00  0.00    -0.352 N 
ATOM      9  HE1 TRP A   1       8.127   2.861  81.177  0.00  0.00    +0.166 HD
ATOM     10  CD1 TRP A   1       9.733   1.512  81.671  0.00  0.00    +0.068 A 
ENDROOT
BRANCH   1  11
ATOM     11  CB  TRP A   1      10.984  -0.634  82.349  0.00  0.00    +0.053 C 
BRANCH  11  12
ATOM     12  CA  TRP A   1      11.653  -1.316  81.150  0.00  0.00    +0.137 C 
BRANCH  12  13
ATOM     13  N   TRP A   1      12.270  -0.318  80.280  0.00  0.00    -0.239 NA
ATOM     14  H   TRP A   1      11.993   0.680  80.374  0.00  0.00    +0.142 HD
ENDBRANCH  12  13
BRANCH  12  15
ATOM     15  C   TRP A   1      10.627  -2.185  80.428  0.00  0.00    +0.224 C 
ATOM     16  O   TRP A   1      10.045  -1.781  79.419  0.00  0.00    -0.287 OA
ENDBRANCH  12  15
ENDBRANCH  11  12
ENDBRANCH   1  11
TORSDOF 4
REMARK  Name = ../refined-set-2016/4riv/4riv_pocket.pdb
REMARK  153 active torsions:
REMARK  status: ('A' for Active; 'I' for Inactive)
REMARK    1  A    between atoms: _1  and  _3
REMARK    2  A    between atoms: _3  and  _4
REMARK    3  A    between atoms: _3  and  _6
REMARK    4  A    between atoms: _6  and  _7
REMARK    5  A    between atoms: _17  and  _19
REMARK    6  A    between atoms: _19  and  _20
REMARK    7  A    between atoms: _19  and  _22
REMARK    8  A    between atoms: _22  and  _23
REMARK    9  A    between atoms: _28  and  _29
REMARK   10  A    between atoms: _31  and  _33
REMARK   11  A    between atoms: _33  and  _34
REMARK   12  A    between atoms: _33  and  _36
REMARK   13  A    between atoms: _36  and  _37
REMARK   14  A    between atoms: _47  and  _49
REMARK   15  A    between atoms: _49  and  _50
REMARK   16  A    between atoms: _49  and  _52
REMARK   17  A    between atoms: _52  and  _53
REMARK   18  A    between atoms: _56  and  _57
REMARK   19  A    between atoms: _62  and  _64
REMARK   20  A    between atoms: _64  and  _65
REMARK   21  A    between atoms: _64  and  _67
REMARK   22  A    between atoms: _67  and  _68
REMARK   23  A    between atoms: _73  and  _75
REMARK   24  A    between atoms: _75  and  _76
REMARK   25  A    between atoms: _75  and  _78
REMARK   26  A    between atoms: _78  and  _79
REMARK   27  A    between atoms: _84  and  _86
REMARK   28  A    between atoms: _86  and  _87
REMARK   29  A    between atoms: _86  and  _89
REMARK   30  A    between atoms: _89  and  _90
REMARK   31  A    between atoms: _92  and  _94
REMARK   32  A    between atoms: _94  and  _95
REMARK   33  A    between atoms: _94  and  _97
REMARK   34  A    between atoms: _97  and  _98
REMARK   35  A    between atoms: _98  and  _99
REMARK   36  A    between atoms: _104  and  _106
REMARK   37  A    between atoms: _106  and  _107
REMARK   38  A    between atoms: _106  and  _109
REMARK   39  A    between atoms: _109  and  _110
REMARK   40  A    between atoms: _113  and  _115
REMARK   41  A    between atoms: _115  and  _116
REMARK   42  A    between atoms: _115  and  _118
REMARK   43  A    between atoms: _118  and  _119
REMARK   44  A    between atoms: _119  and  _120
REMARK   45  A    between atoms: _125  and  _127
REMARK   46  A    between atoms: _127  and  _128
REMARK   47  A    between atoms: _127  and  _130
REMARK   48  A    between atoms: _130  and  _131
REMARK   49  A    between atoms: _137  and  _139
REMARK   50  A    between atoms: _150  and  _153
REMARK   51  A    between atoms: _153  and  _154
REMARK   52  A    between atoms: _162  and  _163
REMARK   53  A    between atoms: _171  and  _173
REMARK   54  A    between atoms: _173  and  _174
REMARK   55  A    between atoms: _173  and  _176
REMARK   56  A    between atoms: _176  and  _177
REMARK   57  A    between atoms: _177  and  _178
REMARK   58  A    between atoms: _181  and  _183
REMARK   59  A    between atoms: _183  and  _184
REMARK   60  A    between atoms: _183  and  _186
REMARK   61  A    between atoms: _186  and  _187
REMARK   62  A    between atoms: _192  and  _194
REMARK   63  A    between atoms: _194  and  _195
REMARK   64  A    between atoms: _194  and  _197
REMARK   65  A    between atoms: _197  and  _198
REMARK   66  A    between atoms: _198  and  _199
REMARK   67  A    between atoms: _202  and  _204
REMARK   68  A    between atoms: _204  and  _205
REMARK   69  A    between atoms: _204  and  _207
REMARK   70  A    between atoms: _207  and  _208
REMARK   71  A    between atoms: _211  and  _213
REMARK   72  A    between atoms: _213  and  _214
REMARK   73  A    between atoms: _213  and  _216
REMARK   74  A    between atoms: _216  and  _217
REMARK   75  A    between atoms: _218  and  ZN_431
REMARK   76  A    between atoms: _222  and  _224
REMARK   77  A    between atoms: _224  and  _225
REMARK   78  A    between atoms: _224  and  _227
REMARK   79  A    between atoms: _227  and  _228
REMARK   80  A    between atoms: _231  and  _233
REMARK   81  A    between atoms: _233  and  _234
REMARK   82  A    between atoms: _233  and  _236
REMARK   83  A    between atoms: _239  and  _241
REMARK   84  A    between atoms: _241  and  _242
REMARK   85  A    between atoms: _241  and  _244
REMARK   86  A    between atoms: _244  and  _245
REMARK   87  A    between atoms: _250  and  _252
REMARK   88  A    between atoms: _252  and  _253
REMARK   89  A    between atoms: _252  and  _255
REMARK   90  A    between atoms: _258  and  _260
REMARK   91  A    between atoms: _260  and  _261
REMARK   92  A    between atoms: _260  and  _263
REMARK   93  A    between atoms: _266  and  _268
REMARK   94  A    between atoms: _268  and  _269
REMARK   95  A    between atoms: _268  and  _271
REMARK   96  A    between atoms: _271  and  _272
REMARK   97  A    between atoms: _275  and  _277
REMARK   98  A    between atoms: _277  and  _278
REMARK   99  A    between atoms: _281  and  _283
REMARK  100  A    between atoms: _283  and  _284
REMARK  101  A    between atoms: _283  and  _286
REMARK  102  A    between atoms: _289  and  _291
REMARK  103  A    between atoms: _291  and  _292
REMARK  104  A    between atoms: _291  and  _294
REMARK  105  A    between atoms: _294  and  _295
REMARK  106  A    between atoms: _298  and  _300
REMARK  107  A    between atoms: _300  and  _301
REMARK  108  A    between atoms: _303  and  _305
REMARK  109  A    between atoms: _305  and  _306
REMARK  110  A    between atoms: _308  and  _310
REMARK  111  A    between atoms: _310  and  _311
REMARK  112  A    between atoms: _310  and  _313
REMARK  113  A    between atoms: _313  and  _314
REMARK  114  A    between atoms: _316  and  _318
REMARK  115  A    between atoms: _318  and  _319
REMARK  116  A    between atoms: _318  and  _321
REMARK  117  A    between atoms: _321  and  _322
REMARK  118  A    between atoms: _325  and  _327
REMARK  119  A    between atoms: _327  and  _328
REMARK  120  A    between atoms: _327  and  _330
REMARK  121  A    between atoms: _330  and  _331
REMARK  122  A    between atoms: _334  and  _336
REMARK  123  A    between atoms: _336  and  _337
REMARK  124  A    between atoms: _336  and  _339
REMARK  125  A    between atoms: _339  and  _340
REMARK  126  A    between atoms: _344  and  _345
REMARK  127  A    between atoms: _351  and  _352
REMARK  128  A    between atoms: _357  and  _359
REMARK  129  A    between atoms: _359  and  _360
REMARK  130  A    between atoms: _359  and  _362
REMARK  131  A    between atoms: _362  and  _363
REMARK  132  A    between atoms: _366  and  _368
REMARK  133  A    between atoms: _368  and  _369
REMARK  134  A    between atoms: _372  and  _374
REMARK  135  A    between atoms: _374  and  _375
REMARK  136  A    between atoms: _374  and  _377
REMARK  137  A    between atoms: _379  and  _381
REMARK  138  A    between atoms: _381  and  _382
REMARK  139  A    between atoms: _381  and  _384
REMARK  140  A    between atoms: _387  and  _389
REMARK  141  A    between atoms: _389  and  _390
REMARK  142  A    between atoms: _389  and  _392
REMARK  143  A    between atoms: _392  and  _393
REMARK  144  A    between atoms: _403  and  _405
REMARK  145  A    between atoms: _405  and  _406
REMARK  146  A    between atoms: _405  and  _408
REMARK  147  A    between atoms: _408  and  _409
REMARK  148  A    between atoms: _414  and  _416
REMARK  149  A    between atoms: _416  and  _417
REMARK  150  A    between atoms: _416  and  _419
REMARK  151  A    between atoms: _419  and  _420
REMARK  152  A    between atoms: _420  and  _421
REMARK  153  A    between atoms: _421  and  _422
REMARK                            x       y       z     vdW  Elec       q    Type
REMARK                         _______ _______ _______ _____ _____    ______ ____
ROOT
ATOM      1  CG  TYR A   1       6.024  -6.988  81.951  0.00  0.00    -0.020 A 
ATOM      2  CD2 TYR A   1       5.609  -6.955  83.270  0.00  0.00    -0.001 A 
ATOM      3  CE2 TYR A   1       4.782  -5.953  83.722  0.00  0.00    +0.036 A 
ATOM      4  CZ  TYR A   1       4.354  -4.969  82.843  0.00  0.00    +0.134 A 
ATOM      5  CE1 TYR A   1       4.763  -4.976  81.529  0.00  0.00    +0.036 A 
ATOM      6  CD1 TYR A   1       5.601  -5.982  81.093  0.00  0.00    -0.001 A 
ENDROOT
BRANCH   4   7
ATOM      7  OH  TYR A   1       3.523  -3.966  83.285  0.00  0.00    -0.506 OA
ATOM      8  HH  TYR A   1       3.323  -4.104  84.245  0.00  0.00    +0.292 HD
ENDBRANCH   4   7
BRANCH   1   9
ATOM      9  CB  TYR A   1       6.937  -8.076  81.470  0.00  0.00    +0.051 C 
BRANCH   9  10
ATOM     10  CA  TYR A   1       8.406  -7.720  81.661  0.00  0.00    +0.137 C 
BRANCH  10  11
ATOM     11  N   TYR A   1       8.771  -6.566  80.843  0.00  0.00    -0.239 NA
ATOM     12  H   TYR A   1       8.787  -6.664  79.808  0.00  0.00    +0.142 HD
ENDBRANCH  10  11
BRANCH  10  13
ATOM     13  C   TYR A   1       9.263  -8.909  81.319  0.00  0.00    +0.224 C 
ATOM     14  O   TYR A   1       8.924 -10.050  81.630  0.00  0.00    -0.287 OA
ENDBRANCH  10  13
ENDBRANCH   9  10
ENDBRANCH   1   9
TORSDOF 5
REMARK  Name = ../refined-set-2016/4riv/4riv_pocket.pdb
REMARK  153 active torsions:
REMARK  status: ('A' for Active; 'I' for Inactive)
REMARK    1  A    between atoms: _1  and  _3
REMARK    2  A    between atoms: _3  and  _4
REMARK    3  A    between atoms: _3  and  _6
REMARK    4  A    between atoms: _6  and  _7
REMARK    5  A    between atoms: _17  and  _19
REMARK    6  A    between atoms: _19  and  _20
REMARK    7  A    between atoms: _19  and  _22
REMARK    8  A    between atoms: _22  and  _23
REMARK    9  A    between atoms: _28  and  _29
REMARK   10  A    between atoms: _31  and  _33
REMARK   11  A    between atoms: _33  and  _34
REMARK   12  A    between atoms: _33  and  _36
REMARK   13  A    between atoms: _36  and  _37
REMARK   14  A    between atoms: _47  and  _49
REMARK   15  A    between atoms: _49  and  _50
REMARK   16  A    between atoms: _49  and  _52
REMARK   17  A    between atoms: _52  and  _53
REMARK   18  A    between atoms: _56  and  _57
REMARK   19  A    between atoms: _62  and  _64
REMARK   20  A    between atoms: _64  and  _65
REMARK   21  A    between atoms: _64  and  _67
REMARK   22  A    between atoms: _67  and  _68
REMARK   23  A    between atoms: _73  and  _75
REMARK   24  A    between atoms: _75  and  _76
REMARK   25  A    between atoms: _75  and  _78
REMARK   26  A    between atoms: _78  and  _79
REMARK   27  A    between atoms: _84  and  _86
REMARK   28  A    between atoms: _86  and  _87
REMARK   29  A    between atoms: _86  and  _89
REMARK   30  A    between atoms: _89  and  _90
REMARK   31  A    between atoms: _92  and  _94
REMARK   32  A    between atoms: _94  and  _95
REMARK   33  A    between atoms: _94  and  _97
REMARK   34  A    between atoms: _97  and  _98
REMARK   35  A    between atoms: _98  and  _99
REMARK   36  A    between atoms: _104  and  _106
REMARK   37  A    between atoms: _106  and  _107
REMARK   38  A    between atoms: _106  and  _109
REMARK   39  A    between atoms: _109  and  _110
REMARK   40  A    between atoms: _113  and  _115
REMARK   41  A    between atoms: _115  and  _116
REMARK   42  A    between atoms: _115  and  _118
REMARK   43  A    between atoms: _118  and  _119
REMARK   44  A    between atoms: _119  and  _120
REMARK   45  A    between atoms: _125  and  _127
REMARK   46  A    between atoms: _127  and  _128
REMARK   47  A    between atoms: _127  and  _130
REMARK   48  A    between atoms: _130  and  _131
REMARK   49  A    between atoms: _137  and  _139
REMARK   50  A    between atoms: _150  and  _153
REMARK   51  A    between atoms: _153  and  _154
REMARK   52  A    between atoms: _162  and  _163
REMARK   53  A    between atoms: _171  and  _173
REMARK   54  A    between atoms: _173  and  _174
REMARK   55  A    between atoms: _173  and  _176
REMARK   56  A    between atoms: _176  and  _177
REMARK   57  A    between atoms: _177  and  _178
REMARK   58  A    between atoms: _181  and  _183
REMARK   59  A    between atoms: _183  and  _184
REMARK   60  A    between atoms: _183  and  _186
REMARK   61  A    between atoms: _186  and  _187
REMARK   62  A    between atoms: _192  and  _194
REMARK   63  A    between atoms: _194  and  _195
REMARK   64  A    between atoms: _194  and  _197
REMARK   65  A    between atoms: _197  and  _198
REMARK   66  A    between atoms: _198  and  _199
REMARK   67  A    between atoms: _202  and  _204
REMARK   68  A    between atoms: _204  and  _205
REMARK   69  A    between atoms: _204  and  _207
REMARK   70  A    between atoms: _207  and  _208
REMARK   71  A    between atoms: _211  and  _213
REMARK   72  A    between atoms: _213  and  _214
REMARK   73  A    between atoms: _213  and  _216
REMARK   74  A    between atoms: _216  and  _217
REMARK   75  A    between atoms: _218  and  ZN_431
REMARK   76  A    between atoms: _222  and  _224
REMARK   77  A    between atoms: _224  and  _225
REMARK   78  A    between atoms: _224  and  _227
REMARK   79  A    between atoms: _227  and  _228
REMARK   80  A    between atoms: _231  and  _233
REMARK   81  A    between atoms: _233  and  _234
REMARK   82  A    between atoms: _233  and  _236
REMARK   83  A    between atoms: _239  and  _241
REMARK   84  A    between atoms: _241  and  _242
REMARK   85  A    between atoms: _241  and  _244
REMARK   86  A    between atoms: _244  and  _245
REMARK   87  A    between atoms: _250  and  _252
REMARK   88  A    between atoms: _252  and  _253
REMARK   89  A    between atoms: _252  and  _255
REMARK   90  A    between atoms: _258  and  _260
REMARK   91  A    between atoms: _260  and  _261
REMARK   92  A    between atoms: _260  and  _263
REMARK   93  A    between atoms: _266  and  _268
REMARK   94  A    between atoms: _268  and  _269
REMARK   95  A    between atoms: _268  and  _271
REMARK   96  A    between atoms: _271  and  _272
REMARK   97  A    between atoms: _275  and  _277
REMARK   98  A    between atoms: _277  and  _278
REMARK   99  A    between atoms: _281  and  _283
REMARK  100  A    between atoms: _283  and  _284
REMARK  101  A    between atoms: _283  and  _286
REMARK  102  A    between atoms: _289  and  _291
REMARK  103  A    between atoms: _291  and  _292
REMARK  104  A    between atoms: _291  and  _294
REMARK  105  A    between atoms: _294  and  _295
REMARK  106  A    between atoms: _298  and  _300
REMARK  107  A    between atoms: _300  and  _301
REMARK  108  A    between atoms: _303  and  _305
REMARK  109  A    between atoms: _305  and  _306
REMARK  110  A    between atoms: _308  and  _310
REMARK  111  A    between atoms: _310  and  _311
REMARK  112  A    between atoms: _310  and  _313
REMARK  113  A    between atoms: _313  and  _314
REMARK  114  A    between atoms: _316  and  _318
REMARK  115  A    between atoms: _318  and  _319
REMARK  116  A    between atoms: _318  and  _321
REMARK  117  A    between atoms: _321  and  _322
REMARK  118  A    between atoms: _325  and  _327
REMARK  119  A    between atoms: _327  and  _328
REMARK  120  A    between atoms: _327  and  _330
REMARK  121  A    between atoms: _330  and  _331
REMARK  122  A    between atoms: _334  and  _336
REMARK  123  A    between atoms: _336  and  _337
REMARK  124  A    between atoms: _336  and  _339
REMARK  125  A    between atoms: _339  and  _340
REMARK  126  A    between atoms: _344  and  _345
REMARK  127  A    between atoms: _351  and  _352
REMARK  128  A    between atoms: _357  and  _359
REMARK  129  A    between atoms: _359  and  _360
REMARK  130  A    between atoms: _359  and  _362
REMARK  131  A    between atoms: _362  and  _363
REMARK  132  A    between atoms: _366  and  _368
REMARK  133  A    between atoms: _368  and  _369
REMARK  134  A    between atoms: _372  and  _374
REMARK  135  A    between atoms: _374  and  _375
REMARK  136  A    between atoms: _374  and  _377
REMARK  137  A    between atoms: _379  and  _381
REMARK  138  A    between atoms: _381  and  _382
REMARK  139  A    between atoms: _381  and  _384
REMARK  140  A    between atoms: _387  and  _389
REMARK  141  A    between atoms: _389  and  _390
REMARK  142  A    between atoms: _389  and  _392
REMARK  143  A    between atoms: _392  and  _393
REMARK  144  A    between atoms: _403  and  _405
REMARK  145  A    between atoms: _405  and  _406
REMARK  146  A    between atoms: _405  and  _408
REMARK  147  A    between atoms: _408  and  _409
REMARK  148  A    between atoms: _414  and  _416
REMARK  149  A    between atoms: _416  and  _417
REMARK  150  A    between atoms: _416  and  _419
REMARK  151  A    between atoms: _419  and  _420
REMARK  152  A    between atoms: _420  and  _421
REMARK  153  A    between atoms: _421  and  _422
REMARK                            x       y       z     vdW  Elec       q    Type
REMARK                         _______ _______ _______ _____ _____    ______ ____
ROOT
ATOM      1  CG  TRP A   1      10.448  -2.339  86.864  0.00  0.00    -0.002 A 
ATOM      2  CD2 TRP A   1       9.056  -2.649  86.779  0.00  0.00    +0.013 A 
ATOM      3  CE3 TRP A   1       7.970  -2.462  87.640  0.00  0.00    +0.001 A 
ATOM      4  CZ3 TRP A   1       6.725  -2.898  87.242  0.00  0.00    +0.000 A 
ATOM      5  CH2 TRP A   1       6.537  -3.527  85.999  0.00  0.00    +0.001 A 
ATOM      6  CZ2 TRP A   1       7.580  -3.728  85.133  0.00  0.00    +0.017 A 
ATOM      7  CE2 TRP A   1       8.838  -3.277  85.534  0.00  0.00    +0.056 A 
ATOM      8  NE1 TRP A   1      10.047  -3.344  84.888  0.00  0.00    -0.352 N 
ATOM      9  HE1 TRP A   1      10.210  -3.757  83.947  0.00  0.00    +0.166 HD
ATOM     10  CD1 TRP A   1      11.012  -2.772  85.694  0.00  0.00    +0.068 A 
ENDROOT
BRANCH   1  11
ATOM     11  CB  TRP A   1      11.141  -1.647  88.016  0.00  0.00    +0.053 C 
BRANCH  11  12
ATOM     12  CA  TRP A   1      12.664  -1.583  87.879  0.00  0.00    +0.137 C 
BRANCH  12  13
ATOM     13  N   TRP A   1      13.234  -2.925  87.964  0.00  0.00    -0.239 NA
ATOM     14  H   TRP A   1      12.614  -3.734  88.172  0.00  0.00    +0.142 HD
ENDBRANCH  12  13
BRANCH  12  15
ATOM     15  C   TRP A   1      13.234  -0.606  88.909  0.00  0.00    +0.224 C 
ATOM     16  O   TRP A   1      13.338   0.594  88.634  0.00  0.00    -0.287 OA
ENDBRANCH  12  15
ENDBRANCH  11  12
ENDBRANCH   1  11
TORSDOF 4
REMARK  Name = ../refined-set-2016/4riv/4riv_pocket.pdb
REMARK  153 active torsions:
REMARK  status: ('A' for Active; 'I' for Inactive)
REMARK    1  A    between atoms: _1  and  _3
REMARK    2  A    between atoms: _3  and  _4
REMARK    3  A    between atoms: _3  and  _6
REMARK    4  A    between atoms: _6  and  _7
REMARK    5  A    between atoms: _17  and  _19
REMARK    6  A    between atoms: _19  and  _20
REMARK    7  A    between atoms: _19  and  _22
REMARK    8  A    between atoms: _22  and  _23
REMARK    9  A    between atoms: _28  and  _29
REMARK   10  A    between atoms: _31  and  _33
REMARK   11  A    between atoms: _33  and  _34
REMARK   12  A    between atoms: _33  and  _36
REMARK   13  A    between atoms: _36  and  _37
REMARK   14  A    between atoms: _47  and  _49
REMARK   15  A    between atoms: _49  and  _50
REMARK   16  A    between atoms: _49  and  _52
REMARK   17  A    between atoms: _52  and  _53
REMARK   18  A    between atoms: _56  and  _57
REMARK   19  A    between atoms: _62  and  _64
REMARK   20  A    between atoms: _64  and  _65
REMARK   21  A    between atoms: _64  and  _67
REMARK   22  A    between atoms: _67  and  _68
REMARK   23  A    between atoms: _73  and  _75
REMARK   24  A    between atoms: _75  and  _76
REMARK   25  A    between atoms: _75  and  _78
REMARK   26  A    between atoms: _78  and  _79
REMARK   27  A    between atoms: _84  and  _86
REMARK   28  A    between atoms: _86  and  _87
REMARK   29  A    between atoms: _86  and  _89
REMARK   30  A    between atoms: _89  and  _90
REMARK   31  A    between atoms: _92  and  _94
REMARK   32  A    between atoms: _94  and  _95
REMARK   33  A    between atoms: _94  and  _97
REMARK   34  A    between atoms: _97  and  _98
REMARK   35  A    between atoms: _98  and  _99
REMARK   36  A    between atoms: _104  and  _106
REMARK   37  A    between atoms: _106  and  _107
REMARK   38  A    between atoms: _106  and  _109
REMARK   39  A    between atoms: _109  and  _110
REMARK   40  A    between atoms: _113  and  _115
REMARK   41  A    between atoms: _115  and  _116
REMARK   42  A    between atoms: _115  and  _118
REMARK   43  A    between atoms: _118  and  _119
REMARK   44  A    between atoms: _119  and  _120
REMARK   45  A    between atoms: _125  and  _127
REMARK   46  A    between atoms: _127  and  _128
REMARK   47  A    between atoms: _127  and  _130
REMARK   48  A    between atoms: _130  and  _131
REMARK   49  A    between atoms: _137  and  _139
REMARK   50  A    between atoms: _150  and  _153
REMARK   51  A    between atoms: _153  and  _154
REMARK   52  A    between atoms: _162  and  _163
REMARK   53  A    between atoms: _171  and  _173
REMARK   54  A    between atoms: _173  and  _174
REMARK   55  A    between atoms: _173  and  _176
REMARK   56  A    between atoms: _176  and  _177
REMARK   57  A    between atoms: _177  and  _178
REMARK   58  A    between atoms: _181  and  _183
REMARK   59  A    between atoms: _183  and  _184
REMARK   60  A    between atoms: _183  and  _186
REMARK   61  A    between atoms: _186  and  _187
REMARK   62  A    between atoms: _192  and  _194
REMARK   63  A    between atoms: _194  and  _195
REMARK   64  A    between atoms: _194  and  _197
REMARK   65  A    between atoms: _197  and  _198
REMARK   66  A    between atoms: _198  and  _199
REMARK   67  A    between atoms: _202  and  _204
REMARK   68  A    between atoms: _204  and  _205
REMARK   69  A    between atoms: _204  and  _207
REMARK   70  A    between atoms: _207  and  _208
REMARK   71  A    between atoms: _211  and  _213
REMARK   72  A    between atoms: _213  and  _214
REMARK   73  A    between atoms: _213  and  _216
REMARK   74  A    between atoms: _216  and  _217
REMARK   75  A    between atoms: _218  and  ZN_431
REMARK   76  A    between atoms: _222  and  _224
REMARK   77  A    between atoms: _224  and  _225
REMARK   78  A    between atoms: _224  and  _227
REMARK   79  A    between atoms: _227  and  _228
REMARK   80  A    between atoms: _231  and  _233
REMARK   81  A    between atoms: _233  and  _234
REMARK   82  A    between atoms: _233  and  _236
REMARK   83  A    between atoms: _239  and  _241
REMARK   84  A    between atoms: _241  and  _242
REMARK   85  A    between atoms: _241  and  _244
REMARK   86  A    between atoms: _244  and  _245
REMARK   87  A    between atoms: _250  and  _252
REMARK   88  A    between atoms: _252  and  _253
REMARK   89  A    between atoms: _252  and  _255
REMARK   90  A    between atoms: _258  and  _260
REMARK   91  A    between atoms: _260  and  _261
REMARK   92  A    between atoms: _260  and  _263
REMARK   93  A    between atoms: _266  and  _268
REMARK   94  A    between atoms: _268  and  _269
REMARK   95  A    between atoms: _268  and  _271
REMARK   96  A    between atoms: _271  and  _272
REMARK   97  A    between atoms: _275  and  _277
REMARK   98  A    between atoms: _277  and  _278
REMARK   99  A    between atoms: _281  and  _283
REMARK  100  A    between atoms: _283  and  _284
REMARK  101  A    between atoms: _283  and  _286
REMARK  102  A    between atoms: _289  and  _291
REMARK  103  A    between atoms: _291  and  _292
REMARK  104  A    between atoms: _291  and  _294
REMARK  105  A    between atoms: _294  and  _295
REMARK  106  A    between atoms: _298  and  _300
REMARK  107  A    between atoms: _300  and  _301
REMARK  108  A    between atoms: _303  and  _305
REMARK  109  A    between atoms: _305  and  _306
REMARK  110  A    between atoms: _308  and  _310
REMARK  111  A    between atoms: _310  and  _311
REMARK  112  A    between atoms: _310  and  _313
REMARK  113  A    between atoms: _313  and  _314
REMARK  114  A    between atoms: _316  and  _318
REMARK  115  A    between atoms: _318  and  _319
REMARK  116  A    between atoms: _318  and  _321
REMARK  117  A    between atoms: _321  and  _322
REMARK  118  A    between atoms: _325  and  _327
REMARK  119  A    between atoms: _327  and  _328
REMARK  120  A    between atoms: _327  and  _330
REMARK  121  A    between atoms: _330  and  _331
REMARK  122  A    between atoms: _334  and  _336
REMARK  123  A    between atoms: _336  and  _337
REMARK  124  A    between atoms: _336  and  _339
REMARK  125  A    between atoms: _339  and  _340
REMARK  126  A    between atoms: _344  and  _345
REMARK  127  A    between atoms: _351  and  _352
REMARK  128  A    between atoms: _357  and  _359
REMARK  129  A    between atoms: _359  and  _360
REMARK  130  A    between atoms: _359  and  _362
REMARK  131  A    between atoms: _362  and  _363
REMARK  132  A    between atoms: _366  and  _368
REMARK  133  A    between atoms: _368  and  _369
REMARK  134  A    between atoms: _372  and  _374
REMARK  135  A    between atoms: _374  and  _375
REMARK  136  A    between atoms: _374  and  _377
REMARK  137  A    between atoms: _379  and  _381
REMARK  138  A    between atoms: _381  and  _382
REMARK  139  A    between atoms: _381  and  _384
REMARK  140  A    between atoms: _387  and  _389
REMARK  141  A    between atoms: _389  and  _390
REMARK  142  A    between atoms: _389  and  _392
REMARK  143  A    between atoms: _392  and  _393
REMARK  144  A    between atoms: _403  and  _405
REMARK  145  A    between atoms: _405  and  _406
REMARK  146  A    between atoms: _405  and  _408
REMARK  147  A    between atoms: _408  and  _409
REMARK  148  A    between atoms: _414  and  _416
REMARK  149  A    between atoms: _416  and  _417
REMARK  150  A    between atoms: _416  and  _419
REMARK  151  A    between atoms: _419  and  _420
REMARK  152  A    between atoms: _420  and  _421
REMARK  153  A    between atoms: _421  and  _422
REMARK                            x       y       z     vdW  Elec       q    Type
REMARK                         _______ _______ _______ _____ _____    ______ ____
ROOT
ATOM      1  C   SER A   1       1.712  -2.847  93.202  0.00  0.00    +0.244 C 
ATOM      2  N   PRO A   2       1.087  -4.005  92.970  0.00  0.00    -0.273 N 
ATOM      3  CA  PRO A   2      -0.078  -4.552  93.663  0.00  0.00    +0.140 C 
ATOM      4  CB  PRO A   2      -0.608  -5.573  92.657  0.00  0.00    +0.030 C 
ATOM      5  CG  PRO A   2       0.645  -6.101  92.031  0.00  0.00    +0.024 C 
ATOM      6  CD  PRO A   2       1.547  -4.899  91.893  0.00  0.00    +0.094 C 
ATOM      7  O   SER A   1       2.669  -2.474  92.537  0.00  0.00    -0.273 OA
ENDROOT
BRANCH   3   8
ATOM      8  C   PRO A   2       0.317  -5.218  94.978  0.00  0.00    +0.227 C 
ATOM      9  O   PRO A   2       1.497  -5.250  95.335  0.00  0.00    -0.286 OA
ENDBRANCH   3   8
BRANCH   1  10
ATOM     10  CA  SER A   1       1.175  -1.968  94.325  0.00  0.00    +0.175 C 
BRANCH  10  11
ATOM     11  N   SER A   1       2.249  -1.093  94.801  0.00  0.00    -0.236 NA
ATOM     12  H   SER A   1       2.738  -0.493  94.106  0.00  0.00    +0.142 HD
ENDBRANCH  10  11
BRANCH  10  13
ATOM     13  CB  SER A   1      -0.007  -1.137  93.812  0.00  0.00    +0.163 C 
BRANCH  13  14
ATOM     14  OG  SER A   1      -0.572  -0.373  94.865  0.00  0.00    -0.380 OA
ATOM     15  H   SER A   1      -0.891  -0.981  95.578  0.00  0.00    +0.211 HD
ENDBRANCH  13  14
ENDBRANCH  10  13
ENDBRANCH   1  10
TORSDOF 5
REMARK  Name = ../refined-set-2016/4riv/4riv_pocket.pdb
REMARK  153 active torsions:
REMARK  status: ('A' for Active; 'I' for Inactive)
REMARK    1  A    between atoms: _1  and  _3
REMARK    2  A    between atoms: _3  and  _4
REMARK    3  A    between atoms: _3  and  _6
REMARK    4  A    between atoms: _6  and  _7
REMARK    5  A    between atoms: _17  and  _19
REMARK    6  A    between atoms: _19  and  _20
REMARK    7  A    between atoms: _19  and  _22
REMARK    8  A    between atoms: _22  and  _23
REMARK    9  A    between atoms: _28  and  _29
REMARK   10  A    between atoms: _31  and  _33
REMARK   11  A    between atoms: _33  and  _34
REMARK   12  A    between atoms: _33  and  _36
REMARK   13  A    between atoms: _36  and  _37
REMARK   14  A    between atoms: _47  and  _49
REMARK   15  A    between atoms: _49  and  _50
REMARK   16  A    between atoms: _49  and  _52
REMARK   17  A    between atoms: _52  and  _53
REMARK   18  A    between atoms: _56  and  _57
REMARK   19  A    between atoms: _62  and  _64
REMARK   20  A    between atoms: _64  and  _65
REMARK   21  A    between atoms: _64  and  _67
REMARK   22  A    between atoms: _67  and  _68
REMARK   23  A    between atoms: _73  and  _75
REMARK   24  A    between atoms: _75  and  _76
REMARK   25  A    between atoms: _75  and  _78
REMARK   26  A    between atoms: _78  and  _79
REMARK   27  A    between atoms: _84  and  _86
REMARK   28  A    between atoms: _86  and  _87
REMARK   29  A    between atoms: _86  and  _89
REMARK   30  A    between atoms: _89  and  _90
REMARK   31  A    between atoms: _92  and  _94
REMARK   32  A    between atoms: _94  and  _95
REMARK   33  A    between atoms: _94  and  _97
REMARK   34  A    between atoms: _97  and  _98
REMARK   35  A    between atoms: _98  and  _99
REMARK   36  A    between atoms: _104  and  _106
REMARK   37  A    between atoms: _106  and  _107
REMARK   38  A    between atoms: _106  and  _109
REMARK   39  A    between atoms: _109  and  _110
REMARK   40  A    between atoms: _113  and  _115
REMARK   41  A    between atoms: _115  and  _116
REMARK   42  A    between atoms: _115  and  _118
REMARK   43  A    between atoms: _118  and  _119
REMARK   44  A    between atoms: _119  and  _120
REMARK   45  A    between atoms: _125  and  _127
REMARK   46  A    between atoms: _127  and  _128
REMARK   47  A    between atoms: _127  and  _130
REMARK   48  A    between atoms: _130  and  _131
REMARK   49  A    between atoms: _137  and  _139
REMARK   50  A    between atoms: _150  and  _153
REMARK   51  A    between atoms: _153  and  _154
REMARK   52  A    between atoms: _162  and  _163
REMARK   53  A    between atoms: _171  and  _173
REMARK   54  A    between atoms: _173  and  _174
REMARK   55  A    between atoms: _173  and  _176
REMARK   56  A    between atoms: _176  and  _177
REMARK   57  A    between atoms: _177  and  _178
REMARK   58  A    between atoms: _181  and  _183
REMARK   59  A    between atoms: _183  and  _184
REMARK   60  A    between atoms: _183  and  _186
REMARK   61  A    between atoms: _186  and  _187
REMARK   62  A    between atoms: _192  and  _194
REMARK   63  A    between atoms: _194  and  _195
REMARK   64  A    between atoms: _194  and  _197
REMARK   65  A    between atoms: _197  and  _198
REMARK   66  A    between atoms: _198  and  _199
REMARK   67  A    between atoms: _202  and  _204
REMARK   68  A    between atoms: _204  and  _205
REMARK   69  A    between atoms: _204  and  _207
REMARK   70  A    between atoms: _207  and  _208
REMARK   71  A    between atoms: _211  and  _213
REMARK   72  A    between atoms: _213  and  _214
REMARK   73  A    between atoms: _213  and  _216
REMARK   74  A    between atoms: _216  and  _217
REMARK   75  A    between atoms: _218  and  ZN_431
REMARK   76  A    between atoms: _222  and  _224
REMARK   77  A    between atoms: _224  and  _225
REMARK   78  A    between atoms: _224  and  _227
REMARK   79  A    between atoms: _227  and  _228
REMARK   80  A    between atoms: _231  and  _233
REMARK   81  A    between atoms: _233  and  _234
REMARK   82  A    between atoms: _233  and  _236
REMARK   83  A    between atoms: _239  and  _241
REMARK   84  A    between atoms: _241  and  _242
REMARK   85  A    between atoms: _241  and  _244
REMARK   86  A    between atoms: _244  and  _245
REMARK   87  A    between atoms: _250  and  _252
REMARK   88  A    between atoms: _252  and  _253
REMARK   89  A    between atoms: _252  and  _255
REMARK   90  A    between atoms: _258  and  _260
REMARK   91  A    between atoms: _260  and  _261
REMARK   92  A    between atoms: _260  and  _263
REMARK   93  A    between atoms: _266  and  _268
REMARK   94  A    between atoms: _268  and  _269
REMARK   95  A    between atoms: _268  and  _271
REMARK   96  A    between atoms: _271  and  _272
REMARK   97  A    between atoms: _275  and  _277
REMARK   98  A    between atoms: _277  and  _278
REMARK   99  A    between atoms: _281  and  _283
REMARK  100  A    between atoms: _283  and  _284
REMARK  101  A    between atoms: _283  and  _286
REMARK  102  A    between atoms: _289  and  _291
REMARK  103  A    between atoms: _291  and  _292
REMARK  104  A    between atoms: _291  and  _294
REMARK  105  A    between atoms: _294  and  _295
REMARK  106  A    between atoms: _298  and  _300
REMARK  107  A    between atoms: _300  and  _301
REMARK  108  A    between atoms: _303  and  _305
REMARK  109  A    between atoms: _305  and  _306
REMARK  110  A    between atoms: _308  and  _310
REMARK  111  A    between atoms: _310  and  _311
REMARK  112  A    between atoms: _310  and  _313
REMARK  113  A    between atoms: _313  and  _314
REMARK  114  A    between atoms: _316  and  _318
REMARK  115  A    between atoms: _318  and  _319
REMARK  116  A    between atoms: _318  and  _321
REMARK  117  A    between atoms: _321  and  _322
REMARK  118  A    between atoms: _325  and  _327
REMARK  119  A    between atoms: _327  and  _328
REMARK  120  A    between atoms: _327  and  _330
REMARK  121  A    between atoms: _330  and  _331
REMARK  122  A    between atoms: _334  and  _336
REMARK  123  A    between atoms: _336  and  _337
REMARK  124  A    between atoms: _336  and  _339
REMARK  125  A    between atoms: _339  and  _340
REMARK  126  A    between atoms: _344  and  _345
REMARK  127  A    between atoms: _351  and  _352
REMARK  128  A    between atoms: _357  and  _359
REMARK  129  A    between atoms: _359  and  _360
REMARK  130  A    between atoms: _359  and  _362
REMARK  131  A    between atoms: _362  and  _363
REMARK  132  A    between atoms: _366  and  _368
REMARK  133  A    between atoms: _368  and  _369
REMARK  134  A    between atoms: _372  and  _374
REMARK  135  A    between atoms: _374  and  _375
REMARK  136  A    between atoms: _374  and  _377
REMARK  137  A    between atoms: _379  and  _381
REMARK  138  A    between atoms: _381  and  _382
REMARK  139  A    between atoms: _381  and  _384
REMARK  140  A    between atoms: _387  and  _389
REMARK  141  A    between atoms: _389  and  _390
REMARK  142  A    between atoms: _389  and  _392
REMARK  143  A    between atoms: _392  and  _393
REMARK  144  A    between atoms: _403  and  _405
REMARK  145  A    between atoms: _405  and  _406
REMARK  146  A    between atoms: _405  and  _408
REMARK  147  A    between atoms: _408  and  _409
REMARK  148  A    between atoms: _414  and  _416
REMARK  149  A    between atoms: _416  and  _417
REMARK  150  A    between atoms: _416  and  _419
REMARK  151  A    between atoms: _419  and  _420
REMARK  152  A    between atoms: _420  and  _421
REMARK  153  A    between atoms: _421  and  _422
REMARK                            x       y       z     vdW  Elec       q    Type
REMARK                         _______ _______ _______ _____ _____    ______ ____
ROOT
ATOM      1  CB  ASN A   1       1.387   2.025  75.275  0.00  0.00    +0.110 C 
ENDROOT
BRANCH   1   2
ATOM      2  CG  ASN A   1       0.940   1.164  76.440  0.00  0.00    +0.221 C 
ATOM      3  ND2 ASN A   1       0.123   1.737  77.315  0.00  0.00    -0.329 N 
ATOM      4 HD21 ASN A   1      -0.224   1.197  78.133  0.00  0.00    +0.145 HD
ATOM      5 HD22 ASN A   1      -0.170   2.726  77.182  0.00  0.00    +0.145 HD
ATOM      6  OD1 ASN A   1       1.317  -0.002  76.550  0.00  0.00    -0.275 OA
ENDBRANCH   1   2
BRANCH   1   7
ATOM      7  CA  ASN A   1       1.793   1.201  74.048  0.00  0.00    +0.142 C 
BRANCH   7   8
ATOM      8  N   ASN A   1       0.677   0.363  73.604  0.00  0.00    -0.239 NA
ATOM      9  H   ASN A   1       0.121  -0.172  74.301  0.00  0.00    +0.142 HD
ENDBRANCH   7   8
BRANCH   7  10
ATOM     10  C   ASN A   1       3.061   0.406  74.355  0.00  0.00    +0.225 C 
ATOM     11  O   ASN A   1       4.004   0.937  74.949  0.00  0.00    -0.287 OA
ENDBRANCH   7  10
ENDBRANCH   1   7
TORSDOF 4
REMARK  Name = ../refined-set-2016/4riv/4riv_pocket.pdb
REMARK  153 active torsions:
REMARK  status: ('A' for Active; 'I' for Inactive)
REMARK    1  A    between atoms: _1  and  _3
REMARK    2  A    between atoms: _3  and  _4
REMARK    3  A    between atoms: _3  and  _6
REMARK    4  A    between atoms: _6  and  _7
REMARK    5  A    between atoms: _17  and  _19
REMARK    6  A    between atoms: _19  and  _20
REMARK    7  A    between atoms: _19  and  _22
REMARK    8  A    between atoms: _22  and  _23
REMARK    9  A    between atoms: _28  and  _29
REMARK   10  A    between atoms: _31  and  _33
REMARK   11  A    between atoms: _33  and  _34
REMARK   12  A    between atoms: _33  and  _36
REMARK   13  A    between atoms: _36  and  _37
REMARK   14  A    between atoms: _47  and  _49
REMARK   15  A    between atoms: _49  and  _50
REMARK   16  A    between atoms: _49  and  _52
REMARK   17  A    between atoms: _52  and  _53
REMARK   18  A    between atoms: _56  and  _57
REMARK   19  A    between atoms: _62  and  _64
REMARK   20  A    between atoms: _64  and  _65
REMARK   21  A    between atoms: _64  and  _67
REMARK   22  A    between atoms: _67  and  _68
REMARK   23  A    between atoms: _73  and  _75
REMARK   24  A    between atoms: _75  and  _76
REMARK   25  A    between atoms: _75  and  _78
REMARK   26  A    between atoms: _78  and  _79
REMARK   27  A    between atoms: _84  and  _86
REMARK   28  A    between atoms: _86  and  _87
REMARK   29  A    between atoms: _86  and  _89
REMARK   30  A    between atoms: _89  and  _90
REMARK   31  A    between atoms: _92  and  _94
REMARK   32  A    between atoms: _94  and  _95
REMARK   33  A    between atoms: _94  and  _97
REMARK   34  A    between atoms: _97  and  _98
REMARK   35  A    between atoms: _98  and  _99
REMARK   36  A    between atoms: _104  and  _106
REMARK   37  A    between atoms: _106  and  _107
REMARK   38  A    between atoms: _106  and  _109
REMARK   39  A    between atoms: _109  and  _110
REMARK   40  A    between atoms: _113  and  _115
REMARK   41  A    between atoms: _115  and  _116
REMARK   42  A    between atoms: _115  and  _118
REMARK   43  A    between atoms: _118  and  _119
REMARK   44  A    between atoms: _119  and  _120
REMARK   45  A    between atoms: _125  and  _127
REMARK   46  A    between atoms: _127  and  _128
REMARK   47  A    between atoms: _127  and  _130
REMARK   48  A    between atoms: _130  and  _131
REMARK   49  A    between atoms: _137  and  _139
REMARK   50  A    between atoms: _150  and  _153
REMARK   51  A    between atoms: _153  and  _154
REMARK   52  A    between atoms: _162  and  _163
REMARK   53  A    between atoms: _171  and  _173
REMARK   54  A    between atoms: _173  and  _174
REMARK   55  A    between atoms: _173  and  _176
REMARK   56  A    between atoms: _176  and  _177
REMARK   57  A    between atoms: _177  and  _178
REMARK   58  A    between atoms: _181  and  _183
REMARK   59  A    between atoms: _183  and  _184
REMARK   60  A    between atoms: _183  and  _186
REMARK   61  A    between atoms: _186  and  _187
REMARK   62  A    between atoms: _192  and  _194
REMARK   63  A    between atoms: _194  and  _195
REMARK   64  A    between atoms: _194  and  _197
REMARK   65  A    between atoms: _197  and  _198
REMARK   66  A    between atoms: _198  and  _199
REMARK   67  A    between atoms: _202  and  _204
REMARK   68  A    between atoms: _204  and  _205
REMARK   69  A    between atoms: _204  and  _207
REMARK   70  A    between atoms: _207  and  _208
REMARK   71  A    between atoms: _211  and  _213
REMARK   72  A    between atoms: _213  and  _214
REMARK   73  A    between atoms: _213  and  _216
REMARK   74  A    between atoms: _216  and  _217
REMARK   75  A    between atoms: _218  and  ZN_431
REMARK   76  A    between atoms: _222  and  _224
REMARK   77  A    between atoms: _224  and  _225
REMARK   78  A    between atoms: _224  and  _227
REMARK   79  A    between atoms: _227  and  _228
REMARK   80  A    between atoms: _231  and  _233
REMARK   81  A    between atoms: _233  and  _234
REMARK   82  A    between atoms: _233  and  _236
REMARK   83  A    between atoms: _239  and  _241
REMARK   84  A    between atoms: _241  and  _242
REMARK   85  A    between atoms: _241  and  _244
REMARK   86  A    between atoms: _244  and  _245
REMARK   87  A    between atoms: _250  and  _252
REMARK   88  A    between atoms: _252  and  _253
REMARK   89  A    between atoms: _252  and  _255
REMARK   90  A    between atoms: _258  and  _260
REMARK   91  A    between atoms: _260  and  _261
REMARK   92  A    between atoms: _260  and  _263
REMARK   93  A    between atoms: _266  and  _268
REMARK   94  A    between atoms: _268  and  _269
REMARK   95  A    between atoms: _268  and  _271
REMARK   96  A    between atoms: _271  and  _272
REMARK   97  A    between atoms: _275  and  _277
REMARK   98  A    between atoms: _277  and  _278
REMARK   99  A    between atoms: _281  and  _283
REMARK  100  A    between atoms: _283  and  _284
REMARK  101  A    between atoms: _283  and  _286
REMARK  102  A    between atoms: _289  and  _291
REMARK  103  A    between atoms: _291  and  _292
REMARK  104  A    between atoms: _291  and  _294
REMARK  105  A    between atoms: _294  and  _295
REMARK  106  A    between atoms: _298  and  _300
REMARK  107  A    between atoms: _300  and  _301
REMARK  108  A    between atoms: _303  and  _305
REMARK  109  A    between atoms: _305  and  _306
REMARK  110  A    between atoms: _308  and  _310
REMARK  111  A    between atoms: _310  and  _311
REMARK  112  A    between atoms: _310  and  _313
REMARK  113  A    between atoms: _313  and  _314
REMARK  114  A    between atoms: _316  and  _318
REMARK  115  A    between atoms: _318  and  _319
REMARK  116  A    between atoms: _318  and  _321
REMARK  117  A    between atoms: _321  and  _322
REMARK  118  A    between atoms: _325  and  _327
REMARK  119  A    between atoms: _327  and  _328
REMARK  120  A    between atoms: _327  and  _330
REMARK  121  A    between atoms: _330  and  _331
REMARK  122  A    between atoms: _334  and  _336
REMARK  123  A    between atoms: _336  and  _337
REMARK  124  A    between atoms: _336  and  _339
REMARK  125  A    between atoms: _339  and  _340
REMARK  126  A    between atoms: _344  and  _345
REMARK  127  A    between atoms: _351  and  _352
REMARK  128  A    between atoms: _357  and  _359
REMARK  129  A    between atoms: _359  and  _360
REMARK  130  A    between atoms: _359  and  _362
REMARK  131  A    between atoms: _362  and  _363
REMARK  132  A    between atoms: _366  and  _368
REMARK  133  A    between atoms: _368  and  _369
REMARK  134  A    between atoms: _372  and  _374
REMARK  135  A    between atoms: _374  and  _375
REMARK  136  A    between atoms: _374  and  _377
REMARK  137  A    between atoms: _379  and  _381
REMARK  138  A    between atoms: _381  and  _382
REMARK  139  A    between atoms: _381  and  _384
REMARK  140  A    between atoms: _387  and  _389
REMARK  141  A    between atoms: _389  and  _390
REMARK  142  A    between atoms: _389  and  _392
REMARK  143  A    between atoms: _392  and  _393
REMARK  144  A    between atoms: _403  and  _405
REMARK  145  A    between atoms: _405  and  _406
REMARK  146  A    between atoms: _405  and  _408
REMARK  147  A    between atoms: _408  and  _409
REMARK  148  A    between atoms: _414  and  _416
REMARK  149  A    between atoms: _416  and  _417
REMARK  150  A    between atoms: _416  and  _419
REMARK  151  A    between atoms: _419  and  _420
REMARK  152  A    between atoms: _420  and  _421
REMARK  153  A    between atoms: _421  and  _422
REMARK                            x       y       z     vdW  Elec       q    Type
REMARK                         _______ _______ _______ _____ _____    ______ ____
ROOT
ATOM      1  C   HIS A   1       1.887  -3.363  77.954  0.00  0.00    +0.239 C 
ATOM      2  O   HIS A   1       1.715  -4.283  78.752  0.00  0.00    -0.274 OA
ATOM      3  N   SER A   2       0.887  -2.754  77.329  0.00  0.00    -0.296 N 
ATOM      4  H   SER A   2       1.096  -1.901  76.773  0.00  0.00    +0.150 HD
ENDROOT
BRANCH   1   5
ATOM      5  CA  HIS A   1       3.296  -2.861  77.655  0.00  0.00    +0.151 C 
BRANCH   5   6
ATOM      6  N   HIS A   1       3.371  -2.107  76.397  0.00  0.00    -0.238 NA
ATOM      7  H   HIS A   1       2.712  -1.322  76.221  0.00  0.00    +0.142 HD
ENDBRANCH   5   6
BRANCH   5   8
ATOM      8  CB  HIS A   1       3.867  -2.078  78.854  0.00  0.00    +0.074 C 
BRANCH   8   9
ATOM      9  CG  HIS A   1       3.390  -0.665  78.984  0.00  0.00    +0.082 A 
ATOM     10  ND1 HIS A   1       2.258  -0.325  79.686  0.00  0.00    -0.227 NA
ATOM     11  CE1 HIS A   1       2.107   0.989  79.665  0.00  0.00    +0.199 A 
ATOM     12  NE2 HIS A   1       3.112   1.510  78.989  0.00  0.00    -0.221 NA
ATOM     13  CD2 HIS A   1       3.940   0.499  78.561  0.00  0.00    +0.115 A 
ENDBRANCH   8   9
ENDBRANCH   5   8
ENDBRANCH   1   5
BRANCH   3  14
ATOM     14  CA  SER A   2      -0.495  -3.227  77.386  0.00  0.00    +0.166 C 
BRANCH  14  15
ATOM     15  C   SER A   2      -1.250  -2.544  76.248  0.00  0.00    +0.229 C 
ATOM     16  O   SER A   2      -0.622  -1.929  75.395  0.00  0.00    -0.286 OA
ENDBRANCH  14  15
BRANCH  14  17
ATOM     17  CB  SER A   2      -1.133  -2.895  78.739  0.00  0.00    +0.165 C 
BRANCH  17  18
ATOM     18  OG  SER A   2      -2.487  -3.312  78.799  0.00  0.00    -0.380 OA
ATOM     19  H   SER A   2      -2.863  -3.081  79.685  0.00  0.00    +0.211 HD
ENDBRANCH  17  18
ENDBRANCH  14  17
ENDBRANCH   3  14
TORSDOF 8
REMARK  Name = ../refined-set-2016/4riv/4riv_pocket.pdb
REMARK  153 active torsions:
REMARK  status: ('A' for Active; 'I' for Inactive)
REMARK    1  A    between atoms: _1  and  _3
REMARK    2  A    between atoms: _3  and  _4
REMARK    3  A    between atoms: _3  and  _6
REMARK    4  A    between atoms: _6  and  _7
REMARK    5  A    between atoms: _17  and  _19
REMARK    6  A    between atoms: _19  and  _20
REMARK    7  A    between atoms: _19  and  _22
REMARK    8  A    between atoms: _22  and  _23
REMARK    9  A    between atoms: _28  and  _29
REMARK   10  A    between atoms: _31  and  _33
REMARK   11  A    between atoms: _33  and  _34
REMARK   12  A    between atoms: _33  and  _36
REMARK   13  A    between atoms: _36  and  _37
REMARK   14  A    between atoms: _47  and  _49
REMARK   15  A    between atoms: _49  and  _50
REMARK   16  A    between atoms: _49  and  _52
REMARK   17  A    between atoms: _52  and  _53
REMARK   18  A    between atoms: _56  and  _57
REMARK   19  A    between atoms: _62  and  _64
REMARK   20  A    between atoms: _64  and  _65
REMARK   21  A    between atoms: _64  and  _67
REMARK   22  A    between atoms: _67  and  _68
REMARK   23  A    between atoms: _73  and  _75
REMARK   24  A    between atoms: _75  and  _76
REMARK   25  A    between atoms: _75  and  _78
REMARK   26  A    between atoms: _78  and  _79
REMARK   27  A    between atoms: _84  and  _86
REMARK   28  A    between atoms: _86  and  _87
REMARK   29  A    between atoms: _86  and  _89
REMARK   30  A    between atoms: _89  and  _90
REMARK   31  A    between atoms: _92  and  _94
REMARK   32  A    between atoms: _94  and  _95
REMARK   33  A    between atoms: _94  and  _97
REMARK   34  A    between atoms: _97  and  _98
REMARK   35  A    between atoms: _98  and  _99
REMARK   36  A    between atoms: _104  and  _106
REMARK   37  A    between atoms: _106  and  _107
REMARK   38  A    between atoms: _106  and  _109
REMARK   39  A    between atoms: _109  and  _110
REMARK   40  A    between atoms: _113  and  _115
REMARK   41  A    between atoms: _115  and  _116
REMARK   42  A    between atoms: _115  and  _118
REMARK   43  A    between atoms: _118  and  _119
REMARK   44  A    between atoms: _119  and  _120
REMARK   45  A    between atoms: _125  and  _127
REMARK   46  A    between atoms: _127  and  _128
REMARK   47  A    between atoms: _127  and  _130
REMARK   48  A    between atoms: _130  and  _131
REMARK   49  A    between atoms: _137  and  _139
REMARK   50  A    between atoms: _150  and  _153
REMARK   51  A    between atoms: _153  and  _154
REMARK   52  A    between atoms: _162  and  _163
REMARK   53  A    between atoms: _171  and  _173
REMARK   54  A    between atoms: _173  and  _174
REMARK   55  A    between atoms: _173  and  _176
REMARK   56  A    between atoms: _176  and  _177
REMARK   57  A    between atoms: _177  and  _178
REMARK   58  A    between atoms: _181  and  _183
REMARK   59  A    between atoms: _183  and  _184
REMARK   60  A    between atoms: _183  and  _186
REMARK   61  A    between atoms: _186  and  _187
REMARK   62  A    between atoms: _192  and  _194
REMARK   63  A    between atoms: _194  and  _195
REMARK   64  A    between atoms: _194  and  _197
REMARK   65  A    between atoms: _197  and  _198
REMARK   66  A    between atoms: _198  and  _199
REMARK   67  A    between atoms: _202  and  _204
REMARK   68  A    between atoms: _204  and  _205
REMARK   69  A    between atoms: _204  and  _207
REMARK   70  A    between atoms: _207  and  _208
REMARK   71  A    between atoms: _211  and  _213
REMARK   72  A    between atoms: _213  and  _214
REMARK   73  A    between atoms: _213  and  _216
REMARK   74  A    between atoms: _216  and  _217
REMARK   75  A    between atoms: _218  and  ZN_431
REMARK   76  A    between atoms: _222  and  _224
REMARK   77  A    between atoms: _224  and  _225
REMARK   78  A    between atoms: _224  and  _227
REMARK   79  A    between atoms: _227  and  _228
REMARK   80  A    between atoms: _231  and  _233
REMARK   81  A    between atoms: _233  and  _234
REMARK   82  A    between atoms: _233  and  _236
REMARK   83  A    between atoms: _239  and  _241
REMARK   84  A    between atoms: _241  and  _242
REMARK   85  A    between atoms: _241  and  _244
REMARK   86  A    between atoms: _244  and  _245
REMARK   87  A    between atoms: _250  and  _252
REMARK   88  A    between atoms: _252  and  _253
REMARK   89  A    between atoms: _252  and  _255
REMARK   90  A    between atoms: _258  and  _260
REMARK   91  A    between atoms: _260  and  _261
REMARK   92  A    between atoms: _260  and  _263
REMARK   93  A    between atoms: _266  and  _268
REMARK   94  A    between atoms: _268  and  _269
REMARK   95  A    between atoms: _268  and  _271
REMARK   96  A    between atoms: _271  and  _272
REMARK   97  A    between atoms: _275  and  _277
REMARK   98  A    between atoms: _277  and  _278
REMARK   99  A    between atoms: _281  and  _283
REMARK  100  A    between atoms: _283  and  _284
REMARK  101  A    between atoms: _283  and  _286
REMARK  102  A    between atoms: _289  and  _291
REMARK  103  A    between atoms: _291  and  _292
REMARK  104  A    between atoms: _291  and  _294
REMARK  105  A    between atoms: _294  and  _295
REMARK  106  A    between atoms: _298  and  _300
REMARK  107  A    between atoms: _300  and  _301
REMARK  108  A    between atoms: _303  and  _305
REMARK  109  A    between atoms: _305  and  _306
REMARK  110  A    between atoms: _308  and  _310
REMARK  111  A    between atoms: _310  and  _311
REMARK  112  A    between atoms: _310  and  _313
REMARK  113  A    between atoms: _313  and  _314
REMARK  114  A    between atoms: _316  and  _318
REMARK  115  A    between atoms: _318  and  _319
REMARK  116  A    between atoms: _318  and  _321
REMARK  117  A    between atoms: _321  and  _322
REMARK  118  A    between atoms: _325  and  _327
REMARK  119  A    between atoms: _327  and  _328
REMARK  120  A    between atoms: _327  and  _330
REMARK  121  A    between atoms: _330  and  _331
REMARK  122  A    between atoms: _334  and  _336
REMARK  123  A    between atoms: _336  and  _337
REMARK  124  A    between atoms: _336  and  _339
REMARK  125  A    between atoms: _339  and  _340
REMARK  126  A    between atoms: _344  and  _345
REMARK  127  A    between atoms: _351  and  _352
REMARK  128  A    between atoms: _357  and  _359
REMARK  129  A    between atoms: _359  and  _360
REMARK  130  A    between atoms: _359  and  _362
REMARK  131  A    between atoms: _362  and  _363
REMARK  132  A    between atoms: _366  and  _368
REMARK  133  A    between atoms: _368  and  _369
REMARK  134  A    between atoms: _372  and  _374
REMARK  135  A    between atoms: _374  and  _375
REMARK  136  A    between atoms: _374  and  _377
REMARK  137  A    between atoms: _379  and  _381
REMARK  138  A    between atoms: _381  and  _382
REMARK  139  A    between atoms: _381  and  _384
REMARK  140  A    between atoms: _387  and  _389
REMARK  141  A    between atoms: _389  and  _390
REMARK  142  A    between atoms: _389  and  _392
REMARK  143  A    between atoms: _392  and  _393
REMARK  144  A    between atoms: _403  and  _405
REMARK  145  A    between atoms: _405  and  _406
REMARK  146  A    between atoms: _405  and  _408
REMARK  147  A    between atoms: _408  and  _409
REMARK  148  A    between atoms: _414  and  _416
REMARK  149  A    between atoms: _416  and  _417
REMARK  150  A    between atoms: _416  and  _419
REMARK  151  A    between atoms: _419  and  _420
REMARK  152  A    between atoms: _420  and  _421
REMARK  153  A    between atoms: _421  and  _422
REMARK                            x       y       z     vdW  Elec       q    Type
REMARK                         _______ _______ _______ _____ _____    ______ ____
ROOT
ATOM      1  CB  GLN A   1      -4.579   2.214  77.291  0.00  0.00    +0.035 C 
ENDROOT
BRANCH   1   2
ATOM      2  CA  GLN A   1      -5.370   1.132  76.563  0.00  0.00    +0.134 C 
BRANCH   2   3
ATOM      3  N   GLN A   1      -4.496   0.291  75.766  0.00  0.00    -0.239 NA
ATOM      4  H   GLN A   1      -4.060   0.655  74.895  0.00  0.00    +0.142 HD
ENDBRANCH   2   3
BRANCH   2   5
ATOM      5  C   GLN A   1      -6.442   1.751  75.707  0.00  0.00    +0.224 C 
ATOM      6  O   GLN A   1      -6.211   2.084  74.541  0.00  0.00    -0.287 OA
ENDBRANCH   2   5
ENDBRANCH   1   2
BRANCH   1   7
ATOM      7  CG  GLN A   1      -3.896   3.220  76.409  0.00  0.00    +0.087 C 
BRANCH   7   8
ATOM      8  CD  GLN A   1      -3.068   4.189  77.221  0.00  0.00    +0.219 C 
ATOM      9  OE1 GLN A   1      -1.969   3.857  77.665  0.00  0.00    -0.275 OA
ATOM     10  NE2 GLN A   1      -3.600   5.388  77.440  0.00  0.00    -0.329 N 
ATOM     11 HE21 GLN A   1      -3.084   6.090  78.007  0.00  0.00    +0.145 HD
ATOM     12 HE22 GLN A   1      -4.532   5.623  77.044  0.00  0.00    +0.145 HD
ENDBRANCH   7   8
ENDBRANCH   1   7
TORSDOF 5
REMARK  Name = ../refined-set-2016/4riv/4riv_pocket.pdb
REMARK  153 active torsions:
REMARK  status: ('A' for Active; 'I' for Inactive)
REMARK    1  A    between atoms: _1  and  _3
REMARK    2  A    between atoms: _3  and  _4
REMARK    3  A    between atoms: _3  and  _6
REMARK    4  A    between atoms: _6  and  _7
REMARK    5  A    between atoms: _17  and  _19
REMARK    6  A    between atoms: _19  and  _20
REMARK    7  A    between atoms: _19  and  _22
REMARK    8  A    between atoms: _22  and  _23
REMARK    9  A    between atoms: _28  and  _29
REMARK   10  A    between atoms: _31  and  _33
REMARK   11  A    between atoms: _33  and  _34
REMARK   12  A    between atoms: _33  and  _36
REMARK   13  A    between atoms: _36  and  _37
REMARK   14  A    between atoms: _47  and  _49
REMARK   15  A    between atoms: _49  and  _50
REMARK   16  A    between atoms: _49  and  _52
REMARK   17  A    between atoms: _52  and  _53
REMARK   18  A    between atoms: _56  and  _57
REMARK   19  A    between atoms: _62  and  _64
REMARK   20  A    between atoms: _64  and  _65
REMARK   21  A    between atoms: _64  and  _67
REMARK   22  A    between atoms: _67  and  _68
REMARK   23  A    between atoms: _73  and  _75
REMARK   24  A    between atoms: _75  and  _76
REMARK   25  A    between atoms: _75  and  _78
REMARK   26  A    between atoms: _78  and  _79
REMARK   27  A    between atoms: _84  and  _86
REMARK   28  A    between atoms: _86  and  _87
REMARK   29  A    between atoms: _86  and  _89
REMARK   30  A    between atoms: _89  and  _90
REMARK   31  A    between atoms: _92  and  _94
REMARK   32  A    between atoms: _94  and  _95
REMARK   33  A    between atoms: _94  and  _97
REMARK   34  A    between atoms: _97  and  _98
REMARK   35  A    between atoms: _98  and  _99
REMARK   36  A    between atoms: _104  and  _106
REMARK   37  A    between atoms: _106  and  _107
REMARK   38  A    between atoms: _106  and  _109
REMARK   39  A    between atoms: _109  and  _110
REMARK   40  A    between atoms: _113  and  _115
REMARK   41  A    between atoms: _115  and  _116
REMARK   42  A    between atoms: _115  and  _118
REMARK   43  A    between atoms: _118  and  _119
REMARK   44  A    between atoms: _119  and  _120
REMARK   45  A    between atoms: _125  and  _127
REMARK   46  A    between atoms: _127  and  _128
REMARK   47  A    between atoms: _127  and  _130
REMARK   48  A    between atoms: _130  and  _131
REMARK   49  A    between atoms: _137  and  _139
REMARK   50  A    between atoms: _150  and  _153
REMARK   51  A    between atoms: _153  and  _154
REMARK   52  A    between atoms: _162  and  _163
REMARK   53  A    between atoms: _171  and  _173
REMARK   54  A    between atoms: _173  and  _174
REMARK   55  A    between atoms: _173  and  _176
REMARK   56  A    between atoms: _176  and  _177
REMARK   57  A    between atoms: _177  and  _178
REMARK   58  A    between atoms: _181  and  _183
REMARK   59  A    between atoms: _183  and  _184
REMARK   60  A    between atoms: _183  and  _186
REMARK   61  A    between atoms: _186  and  _187
REMARK   62  A    between atoms: _192  and  _194
REMARK   63  A    between atoms: _194  and  _195
REMARK   64  A    between atoms: _194  and  _197
REMARK   65  A    between atoms: _197  and  _198
REMARK   66  A    between atoms: _198  and  _199
REMARK   67  A    between atoms: _202  and  _204
REMARK   68  A    between atoms: _204  and  _205
REMARK   69  A    between atoms: _204  and  _207
REMARK   70  A    between atoms: _207  and  _208
REMARK   71  A    between atoms: _211  and  _213
REMARK   72  A    between atoms: _213  and  _214
REMARK   73  A    between atoms: _213  and  _216
REMARK   74  A    between atoms: _216  and  _217
REMARK   75  A    between atoms: _218  and  ZN_431
REMARK   76  A    between atoms: _222  and  _224
REMARK   77  A    between atoms: _224  and  _225
REMARK   78  A    between atoms: _224  and  _227
REMARK   79  A    between atoms: _227  and  _228
REMARK   80  A    between atoms: _231  and  _233
REMARK   81  A    between atoms: _233  and  _234
REMARK   82  A    between atoms: _233  and  _236
REMARK   83  A    between atoms: _239  and  _241
REMARK   84  A    between atoms: _241  and  _242
REMARK   85  A    between atoms: _241  and  _244
REMARK   86  A    between atoms: _244  and  _245
REMARK   87  A    between atoms: _250  and  _252
REMARK   88  A    between atoms: _252  and  _253
REMARK   89  A    between atoms: _252  and  _255
REMARK   90  A    between atoms: _258  and  _260
REMARK   91  A    between atoms: _260  and  _261
REMARK   92  A    between atoms: _260  and  _263
REMARK   93  A    between atoms: _266  and  _268
REMARK   94  A    between atoms: _268  and  _269
REMARK   95  A    between atoms: _268  and  _271
REMARK   96  A    between atoms: _271  and  _272
REMARK   97  A    between atoms: _275  and  _277
REMARK   98  A    between atoms: _277  and  _278
REMARK   99  A    between atoms: _281  and  _283
REMARK  100  A    between atoms: _283  and  _284
REMARK  101  A    between atoms: _283  and  _286
REMARK  102  A    between atoms: _289  and  _291
REMARK  103  A    between atoms: _291  and  _292
REMARK  104  A    between atoms: _291  and  _294
REMARK  105  A    between atoms: _294  and  _295
REMARK  106  A    between atoms: _298  and  _300
REMARK  107  A    between atoms: _300  and  _301
REMARK  108  A    between atoms: _303  and  _305
REMARK  109  A    between atoms: _305  and  _306
REMARK  110  A    between atoms: _308  and  _310
REMARK  111  A    between atoms: _310  and  _311
REMARK  112  A    between atoms: _310  and  _313
REMARK  113  A    between atoms: _313  and  _314
REMARK  114  A    between atoms: _316  and  _318
REMARK  115  A    between atoms: _318  and  _319
REMARK  116  A    between atoms: _318  and  _321
REMARK  117  A    between atoms: _321  and  _322
REMARK  118  A    between atoms: _325  and  _327
REMARK  119  A    between atoms: _327  and  _328
REMARK  120  A    between atoms: _327  and  _330
REMARK  121  A    between atoms: _330  and  _331
REMARK  122  A    between atoms: _334  and  _336
REMARK  123  A    between atoms: _336  and  _337
REMARK  124  A    between atoms: _336  and  _339
REMARK  125  A    between atoms: _339  and  _340
REMARK  126  A    between atoms: _344  and  _345
REMARK  127  A    between atoms: _351  and  _352
REMARK  128  A    between atoms: _357  and  _359
REMARK  129  A    between atoms: _359  and  _360
REMARK  130  A    between atoms: _359  and  _362
REMARK  131  A    between atoms: _362  and  _363
REMARK  132  A    between atoms: _366  and  _368
REMARK  133  A    between atoms: _368  and  _369
REMARK  134  A    between atoms: _372  and  _374
REMARK  135  A    between atoms: _374  and  _375
REMARK  136  A    between atoms: _374  and  _377
REMARK  137  A    between atoms: _379  and  _381
REMARK  138  A    between atoms: _381  and  _382
REMARK  139  A    between atoms: _381  and  _384
REMARK  140  A    between atoms: _387  and  _389
REMARK  141  A    between atoms: _389  and  _390
REMARK  142  A    between atoms: _389  and  _392
REMARK  143  A    between atoms: _392  and  _393
REMARK  144  A    between atoms: _403  and  _405
REMARK  145  A    between atoms: _405  and  _406
REMARK  146  A    between atoms: _405  and  _408
REMARK  147  A    between atoms: _408  and  _409
REMARK  148  A    between atoms: _414  and  _416
REMARK  149  A    between atoms: _416  and  _417
REMARK  150  A    between atoms: _416  and  _419
REMARK  151  A    between atoms: _419  and  _420
REMARK  152  A    between atoms: _420  and  _421
REMARK  153  A    between atoms: _421  and  _422
REMARK                            x       y       z     vdW  Elec       q    Type
REMARK                         _______ _______ _______ _____ _____    ______ ____
ROOT
ATOM      1  C   UNK A   4      -6.187  -1.279  80.248  0.00  0.00    +0.000 C 
ATOM      2  C   UNK A   4      -6.238  -2.564  81.054  0.00  0.00    +0.000 C 
ATOM      3  O   UNK A   4      -6.895  -2.630  82.094  0.00  0.00    +0.000 OA
ATOM      4  N   VAL A   5      -5.528  -3.576  80.576  0.00  0.00    +0.000 N 
ATOM      5  CA  VAL A   5      -5.484  -4.870  81.253  0.00  0.00    +0.000 C 
ATOM      6  C   VAL A   5      -4.057  -5.347  81.486  0.00  0.00    +0.000 C 
ATOM      7  N   UNK A   6      -3.934  -6.264  82.437  0.00  0.00    +0.000 N 
ATOM      8  H   UNK A   6      -4.736  -6.411  83.083  0.00  0.00    +0.000 HD
ATOM      9  C   UNK A   6      -2.750  -7.071  82.627  0.00  0.00    +0.000 C 
ATOM     10  C   UNK A   6      -2.120  -6.809  83.992  0.00  0.00    +0.000 C 
ATOM     11  C   UNK A   6      -1.824  -5.358  84.247  0.00  0.00    +0.000 A 
ATOM     12  C   UNK A   6      -2.621  -4.340  84.661  0.00  0.00    +0.000 A 
ATOM     13  N   UNK A   6      -1.832  -3.208  84.678  0.00  0.00    +0.000 N 
ATOM     14 ZN   UNK A   6      -2.634  -1.434  85.279  0.00  0.00    +0.000 Zn
ATOM     15  N   UNK A   4      -3.350  -0.600  83.606  0.00  0.00    +0.000 N 
ATOM     16  C   UNK A   4      -3.847   0.613  83.463  0.00  0.00    +0.000 A 
ATOM     17  N   UNK A   4      -4.401   0.693  82.263  0.00  0.00    +0.000 NA
ATOM     18  C   UNK A   4      -4.227  -0.499  81.607  0.00  0.00    +0.000 A 
ATOM     19  C   UNK A   4      -3.571  -1.318  82.459  0.00  0.00    +0.000 A 
ATOM     20  C   UNK A   6      -0.614  -3.521  84.303  0.00  0.00    +0.000 A 
ATOM     21  N   UNK A   6      -0.588  -4.822  84.015  0.00  0.00    +0.000 NA
ATOM     22  O   VAL A   5      -3.109  -4.907  80.827  0.00  0.00    +0.000 OA
ATOM     23  H   VAL A   5      -4.988  -3.446  79.697  0.00  0.00    +0.000 HD
ATOM     24  C   UNK A   4      -4.761  -0.741  80.234  0.00  0.00    +0.000 C 
ENDROOT
BRANCH  14  25
ATOM     25  N   UNK A   6      -4.061  -2.082  86.546  0.00  0.00    +0.000 N 
ATOM     26  C   UNK A   6      -3.723  -2.993  87.437  0.00  0.00    +0.000 A 
ATOM     27  N   UNK A   6      -4.823  -3.428  88.036  0.00  0.00    +0.000 NA
ATOM     28  C   UNK A   6      -5.902  -2.769  87.507  0.00  0.00    +0.000 A 
ATOM     29  C   UNK A   6      -5.437  -1.920  86.565  0.00  0.00    +0.000 A 
BRANCH  29  30
ATOM     30  C   UNK A   6      -6.150  -0.954  85.685  0.00  0.00    +0.000 C 
BRANCH  30  31
ATOM     31  C   UNK A   6      -7.648  -1.240  85.572  0.00  0.00    +0.000 C 
BRANCH  31  32
ATOM     32  N   UNK A   6      -7.872  -2.472  84.816  0.00  0.00    +0.000 N 
ATOM     33  C   LEU A   2      -8.510  -3.525  85.327  0.00  0.00    +0.000 C 
ATOM     34  O   LEU A   2      -8.904  -3.584  86.488  0.00  0.00    +0.000 OA
ATOM     35  H   UNK A   6      -7.519  -2.529  83.839  0.00  0.00    +0.000 HD
BRANCH  33  36
ATOM     36  CA  LEU A   2      -8.738  -4.697  84.381  0.00  0.00    +0.000 C 
BRANCH  36  37
ATOM     37  N   LEU A   2      -8.344  -5.943  85.027  0.00  0.00    +0.000 N 
ATOM     38  H   LEU A   2      -9.042  -6.416  85.636  0.00  0.00    +0.000 HD
ATOM     39  C   GLU A   1      -7.154  -6.513  84.889  0.00  0.00    +0.000 C 
ATOM     40  O   GLU A   1      -6.273  -6.104  84.131  0.00  0.00    +0.000 OA
BRANCH  39  41
ATOM     41  CA  GLU A   1      -6.956  -7.762  85.720  0.00  0.00    +0.000 C 
BRANCH  41  42
ATOM     42  N   GLU A   1      -6.449  -8.815  84.861  0.00  0.00    +0.000 NA
ATOM     43  H   GLU A   1      -5.787  -8.568  84.098  0.00  0.00    +0.000 HD
ENDBRANCH  41  42
BRANCH  41  44
ATOM     44  CB  GLU A   1      -5.993  -7.498  86.891  0.00  0.00    +0.000 C 
BRANCH  44  45
ATOM     45  CG  GLU A   1      -6.524  -6.535  87.951  0.00  0.00    +0.000 C 
BRANCH  45  46
ATOM     46  CD  GLU A   1      -5.602  -6.462  89.156  0.00  0.00    +0.000 C 
ATOM     47  OE2 GLU A   1      -5.520  -5.386  89.777  0.00  0.00    +0.000 OA
ATOM     48  OE1 GLU A   1      -4.960  -7.489  89.483  0.00  0.00    +0.000 OA
ENDBRANCH  45  46
ENDBRANCH  44  45
ENDBRANCH  41  44
ENDBRANCH  39  41
ENDBRANCH  36  37
BRANCH  36  49
ATOM     49  CB  LEU A   2     -10.217  -4.780  83.983  0.00  0.00    +0.000 C 
BRANCH  49  50
ATOM     50  CG  LEU A   2     -10.969  -3.506  83.602  0.00  0.00    +0.000 C 
ATOM     51  CD2 LEU A   2     -12.435  -3.865  83.346  0.00  0.00    +0.000 C 
ATOM     52  CD1 LEU A   2     -10.360  -2.874  82.371  0.00  0.00    +0.000 C 
ENDBRANCH  49  50
ENDBRANCH  36  49
ENDBRANCH  33  36
ENDBRANCH  31  32
BRANCH  31  53
ATOM     53  C   UNK A   6      -8.335  -0.085  84.878  0.00  0.00    +0.000 C 
ATOM     54  N   UNK A   4      -9.323   0.506  85.546  0.00  0.00    +0.000 N 
ATOM     55  H   UNK A   4      -9.662   0.069  86.427  0.00  0.00    +0.000 HD
ATOM     56  O   UNK A   6      -7.965   0.257  83.747  0.00  0.00    +0.000 OA
BRANCH  54  57
ATOM     57  C   UNK A   4      -9.950   1.743  85.091  0.00  0.00    +0.000 C 
BRANCH  57  58
ATOM     58  C   UNK A   4      -9.315   2.892  85.864  0.00  0.00    +0.000 C 
ATOM     59  O   UNK A   4      -9.456   2.987  87.087  0.00  0.00    +0.000 OA
ATOM     60  N   VAL A   5      -8.593   3.743  85.145  0.00  0.00    +0.000 N 
ATOM     61  H   VAL A   5      -8.632   3.685  84.107  0.00  0.00    +0.000 HD
BRANCH  60  62
ATOM     62  CA  VAL A   5      -7.747   4.757  85.765  0.00  0.00    +0.000 C 
BRANCH  62  63
ATOM     63  C   VAL A   5      -8.443   6.109  85.786  0.00  0.00    +0.000 C 
ATOM     64  N   UNK A   6      -8.558   6.697  86.979  0.00  0.00    +0.000 N 
ATOM     65  H   UNK A   6      -8.161   6.215  87.811  0.00  0.00    +0.000 HD
ATOM     66  O   VAL A   5      -8.872   6.600  84.736  0.00  0.00    +0.000 OA
BRANCH  64  67
ATOM     67  C   UNK A   6      -9.219   7.993  87.169  0.00  0.00    +0.000 C 
BRANCH  67  68
ATOM     68  C   UNK A   6      -8.322   8.984  87.906  0.00  0.00    +0.000 C 
ATOM     69  O   UNK A   6      -7.529   8.586  88.752  0.00  0.00    +0.000 OA
ENDBRANCH  67  68
BRANCH  67  70
ATOM     70  C   UNK A   6     -10.513   7.857  87.982  0.00  0.00    +0.000 C 
BRANCH  70  71
ATOM     71  C   UNK A   6     -11.398   6.721  87.568  0.00  0.00    +0.000 A 
ATOM     72  N   UNK A   6     -11.098   5.406  87.843  0.00  0.00    +0.000 NA
ATOM     73  C   UNK A   6     -12.071   4.632  87.389  0.00  0.00    +0.000 A 
ATOM     74  N   UNK A   6     -12.998   5.401  86.850  0.00  0.00    +0.000 NA
ATOM     75  C   UNK A   6     -12.602   6.714  86.944  0.00  0.00    +0.000 A 
ENDBRANCH  70  71
ENDBRANCH  67  70
ENDBRANCH  64  67
ENDBRANCH  62  63
BRANCH  62  76
ATOM     76  CB  VAL A   5      -6.408   4.889  85.006  0.00  0.00    +0.000 C 
ATOM     77  CG2 VAL A   5      -5.508   5.914  85.679  0.00  0.00    +0.000 C 
ATOM     78  CG1 VAL A   5      -5.706   3.534  84.904  0.00  0.00    +0.000 C 
ENDBRANCH  62  76
ENDBRANCH  60  62
ENDBRANCH  57  58
BRANCH  57  79
ATOM     79  C   UNK A   4     -11.473   1.689  85.289  0.00  0.00    +0.000 C 
BRANCH  79  80
ATOM     80  C   UNK A   4     -12.152   0.623  84.417  0.00  0.00    +0.000 C 
ATOM     81  C   UNK A   4     -12.962  -0.351  85.262  0.00  0.00    +0.000 C 
ATOM     82  C   UNK A   4     -13.041   1.253  83.352  0.00  0.00    +0.000 C 
ENDBRANCH  79  80
ENDBRANCH  57  79
ENDBRANCH  54  57
ENDBRANCH  31  53
ENDBRANCH  30  31
ENDBRANCH  29  30
ENDBRANCH  14  25
BRANCH   1  84
ATOM     83  C   UNK A   3      -7.640   0.675  80.179  0.00  0.00    +0.000 C 
ATOM     84  N   UNK A   4      -7.096  -0.327  80.854  0.00  0.00    +0.000 N 
ATOM     85  H   UNK A   4      -7.331  -0.435  81.861  0.00  0.00    +0.000 HD
ATOM     86  O   UNK A   3      -7.404   0.902  78.998  0.00  0.00    +0.000 OA
BRANCH  83  87
ATOM     87  C   UNK A   3      -8.572   1.559  80.991  0.00  0.00    +0.000 C 
BRANCH  87  90
ATOM     88  C   LEU A   2      -8.460   3.953  81.100  0.00  0.00    +0.000 C 
ATOM     89  O   LEU A   2      -8.478   3.945  82.332  0.00  0.00    +0.000 OA
ATOM     90  N   UNK A   3      -8.681   2.868  80.367  0.00  0.00    +0.000 N 
ATOM     91  H   UNK A   3      -8.929   2.953  79.361  0.00  0.00    +0.000 HD
BRANCH  88  92
ATOM     92  CA  LEU A   2      -8.200   5.239  80.343  0.00  0.00    +0.000 C 
BRANCH  92  94
ATOM     93  C   GLU A   1      -8.642   7.601  80.669  0.00  0.00    +0.000 C 
ATOM     94  N   LEU A   2      -8.482   6.385  81.190  0.00  0.00    +0.000 N 
ATOM     95  H   LEU A   2      -8.560   6.254  82.219  0.00  0.00    +0.000 HD
ATOM     96  O   GLU A   1      -8.613   7.810  79.456  0.00  0.00    +0.000 OA
BRANCH  93  97
ATOM     97  CA  GLU A   1      -8.851   8.748  81.662  0.00  0.00    +0.000 C 
BRANCH  97  98
ATOM     98  N   GLU A   1      -9.828   8.400  82.700  0.00  0.00    +0.000 NA
ATOM     99  H   GLU A   1      -9.525   7.767  83.468  0.00  0.00    +0.000 HD
ENDBRANCH  97  98
BRANCH  97 100
ATOM    100  CB  GLU A   1      -7.509   9.126  82.309  0.00  0.00    +0.000 C 
BRANCH 100 101
ATOM    101  CG  GLU A   1      -6.292   9.231  81.385  0.00  0.00    +0.000 C 
ATOM    102  CD2 GLU A   1      -5.001   9.346  82.180  0.00  0.00    +0.000 C 
ATOM    103  CD1 GLU A   1      -6.435  10.406  80.437  0.00  0.00    +0.000 C 
ENDBRANCH 100 101
ENDBRANCH  97 100
ENDBRANCH  93  97
ENDBRANCH  92  94
BRANCH  92 104
ATOM    104  CB  LEU A   2      -6.748   5.266  79.839  0.00  0.00    +0.000 C 
BRANCH 104 105
ATOM    105  CG  LEU A   2      -5.710   5.373  80.954  0.00  0.00    +0.000 C 
BRANCH 105 106
ATOM    106  CD  LEU A   2      -4.987   4.065  81.243  0.00  0.00    +0.000 C 
ATOM    107  NE2 LEU A   2      -3.729   4.176  81.635  0.00  0.00    +0.000 N 
ATOM    108 HE21 LEU A   2      -3.178   3.324  81.863  0.00  0.00    +0.000 HD
ATOM    109 HE22 LEU A   2      -3.290   5.116  81.716  0.00  0.00    +0.000 HD
ATOM    110  OE1 LEU A   2      -5.554   2.974  81.131  0.00  0.00    +0.000 OA
ENDBRANCH 105 106
ENDBRANCH 104 105
ENDBRANCH  92 104
ENDBRANCH  88  92
ENDBRANCH  87  90
BRANCH  87 111
ATOM    111  C   UNK A   3      -9.950   0.885  81.209  0.00  0.00    +0.000 C 
BRANCH 111 112
ATOM    112  C   UNK A   3     -10.663   0.428  79.954  0.00  0.00    +0.000 A 
ATOM    113  C   UNK A   3     -11.778   1.119  79.494  0.00  0.00    +0.000 A 
ATOM    114  C   UNK A   3     -12.478   0.674  78.374  0.00  0.00    +0.000 A 
ATOM    115  C   UNK A   3     -12.064  -0.460  77.708  0.00  0.00    +0.000 A 
ATOM    116  C   UNK A   3     -10.967  -1.166  78.167  0.00  0.00    +0.000 A 
ATOM    117  C   UNK A   3     -10.293  -0.739  79.298  0.00  0.00    +0.000 A 
ENDBRANCH 111 112
ENDBRANCH  87 111
ENDBRANCH  83  87
ENDBRANCH   1  84
BRANCH   9 118
ATOM    118  C   UNK A   6      -3.187  -8.518  82.496  0.00  0.00    +0.000 C 
ATOM    119  O   UNK A   6      -4.243  -8.880  83.009  0.00  0.00    +0.000 OA
ENDBRANCH   9 118
BRANCH   5 120
ATOM    120  CB  VAL A   5      -6.213  -5.962  80.440  0.00  0.00    +0.000 C 
BRANCH 120 121
ATOM    121  CG  VAL A   5      -7.671  -5.671  80.128  0.00  0.00    +0.000 A 
ATOM    122  CD2 VAL A   5      -8.686  -6.340  80.816  0.00  0.00    +0.000 A 
ATOM    123  CE2 VAL A   5     -10.010  -6.114  80.511  0.00  0.00    +0.000 A 
ATOM    124  CZ  VAL A   5     -10.345  -5.222  79.500  0.00  0.00    +0.000 A 
ATOM    125  CE1 VAL A   5      -9.353  -4.570  78.792  0.00  0.00    +0.000 A 
ATOM    126  CD1 VAL A   5      -8.023  -4.795  79.108  0.00  0.00    +0.000 A 
ENDBRANCH 120 121
ENDBRANCH   5 120
TORSDOF 42
REMARK  Name = ../refined-set-2016/4riv/4riv_pocket.pdb
REMARK  153 active torsions:
REMARK  status: ('A' for Active; 'I' for Inactive)
REMARK    1  A    between atoms: _1  and  _3
REMARK    2  A    between atoms: _3  and  _4
REMARK    3  A    between atoms: _3  and  _6
REMARK    4  A    between atoms: _6  and  _7
REMARK    5  A    between atoms: _17  and  _19
REMARK    6  A    between atoms: _19  and  _20
REMARK    7  A    between atoms: _19  and  _22
REMARK    8  A    between atoms: _22  and  _23
REMARK    9  A    between atoms: _28  and  _29
REMARK   10  A    between atoms: _31  and  _33
REMARK   11  A    between atoms: _33  and  _34
REMARK   12  A    between atoms: _33  and  _36
REMARK   13  A    between atoms: _36  and  _37
REMARK   14  A    between atoms: _47  and  _49
REMARK   15  A    between atoms: _49  and  _50
REMARK   16  A    between atoms: _49  and  _52
REMARK   17  A    between atoms: _52  and  _53
REMARK   18  A    between atoms: _56  and  _57
REMARK   19  A    between atoms: _62  and  _64
REMARK   20  A    between atoms: _64  and  _65
REMARK   21  A    between atoms: _64  and  _67
REMARK   22  A    between atoms: _67  and  _68
REMARK   23  A    between atoms: _73  and  _75
REMARK   24  A    between atoms: _75  and  _76
REMARK   25  A    between atoms: _75  and  _78
REMARK   26  A    between atoms: _78  and  _79
REMARK   27  A    between atoms: _84  and  _86
REMARK   28  A    between atoms: _86  and  _87
REMARK   29  A    between atoms: _86  and  _89
REMARK   30  A    between atoms: _89  and  _90
REMARK   31  A    between atoms: _92  and  _94
REMARK   32  A    between atoms: _94  and  _95
REMARK   33  A    between atoms: _94  and  _97
REMARK   34  A    between atoms: _97  and  _98
REMARK   35  A    between atoms: _98  and  _99
REMARK   36  A    between atoms: _104  and  _106
REMARK   37  A    between atoms: _106  and  _107
REMARK   38  A    between atoms: _106  and  _109
REMARK   39  A    between atoms: _109  and  _110
REMARK   40  A    between atoms: _113  and  _115
REMARK   41  A    between atoms: _115  and  _116
REMARK   42  A    between atoms: _115  and  _118
REMARK   43  A    between atoms: _118  and  _119
REMARK   44  A    between atoms: _119  and  _120
REMARK   45  A    between atoms: _125  and  _127
REMARK   46  A    between atoms: _127  and  _128
REMARK   47  A    between atoms: _127  and  _130
REMARK   48  A    between atoms: _130  and  _131
REMARK   49  A    between atoms: _137  and  _139
REMARK   50  A    between atoms: _150  and  _153
REMARK   51  A    between atoms: _153  and  _154
REMARK   52  A    between atoms: _162  and  _163
REMARK   53  A    between atoms: _171  and  _173
REMARK   54  A    between atoms: _173  and  _174
REMARK   55  A    between atoms: _173  and  _176
REMARK   56  A    between atoms: _176  and  _177
REMARK   57  A    between atoms: _177  and  _178
REMARK   58  A    between atoms: _181  and  _183
REMARK   59  A    between atoms: _183  and  _184
REMARK   60  A    between atoms: _183  and  _186
REMARK   61  A    between atoms: _186  and  _187
REMARK   62  A    between atoms: _192  and  _194
REMARK   63  A    between atoms: _194  and  _195
REMARK   64  A    between atoms: _194  and  _197
REMARK   65  A    between atoms: _197  and  _198
REMARK   66  A    between atoms: _198  and  _199
REMARK   67  A    between atoms: _202  and  _204
REMARK   68  A    between atoms: _204  and  _205
REMARK   69  A    between atoms: _204  and  _207
REMARK   70  A    between atoms: _207  and  _208
REMARK   71  A    between atoms: _211  and  _213
REMARK   72  A    between atoms: _213  and  _214
REMARK   73  A    between atoms: _213  and  _216
REMARK   74  A    between atoms: _216  and  _217
REMARK   75  A    between atoms: _218  and  ZN_431
REMARK   76  A    between atoms: _222  and  _224
REMARK   77  A    between atoms: _224  and  _225
REMARK   78  A    between atoms: _224  and  _227
REMARK   79  A    between atoms: _227  and  _228
REMARK   80  A    between atoms: _231  and  _233
REMARK   81  A    between atoms: _233  and  _234
REMARK   82  A    between atoms: _233  and  _236
REMARK   83  A    between atoms: _239  and  _241
REMARK   84  A    between atoms: _241  and  _242
REMARK   85  A    between atoms: _241  and  _244
REMARK   86  A    between atoms: _244  and  _245
REMARK   87  A    between atoms: _250  and  _252
REMARK   88  A    between atoms: _252  and  _253
REMARK   89  A    between atoms: _252  and  _255
REMARK   90  A    between atoms: _258  and  _260
REMARK   91  A    between atoms: _260  and  _261
REMARK   92  A    between atoms: _260  and  _263
REMARK   93  A    between atoms: _266  and  _268
REMARK   94  A    between atoms: _268  and  _269
REMARK   95  A    between atoms: _268  and  _271
REMARK   96  A    between atoms: _271  and  _272
REMARK   97  A    between atoms: _275  and  _277
REMARK   98  A    between atoms: _277  and  _278
REMARK   99  A    between atoms: _281  and  _283
REMARK  100  A    between atoms: _283  and  _284
REMARK  101  A    between atoms: _283  and  _286
REMARK  102  A    between atoms: _289  and  _291
REMARK  103  A    between atoms: _291  and  _292
REMARK  104  A    between atoms: _291  and  _294
REMARK  105  A    between atoms: _294  and  _295
REMARK  106  A    between atoms: _298  and  _300
REMARK  107  A    between atoms: _300  and  _301
REMARK  108  A    between atoms: _303  and  _305
REMARK  109  A    between atoms: _305  and  _306
REMARK  110  A    between atoms: _308  and  _310
REMARK  111  A    between atoms: _310  and  _311
REMARK  112  A    between atoms: _310  and  _313
REMARK  113  A    between atoms: _313  and  _314
REMARK  114  A    between atoms: _316  and  _318
REMARK  115  A    between atoms: _318  and  _319
REMARK  116  A    between atoms: _318  and  _321
REMARK  117  A    between atoms: _321  and  _322
REMARK  118  A    between atoms: _325  and  _327
REMARK  119  A    between atoms: _327  and  _328
REMARK  120  A    between atoms: _327  and  _330
REMARK  121  A    between atoms: _330  and  _331
REMARK  122  A    between atoms: _334  and  _336
REMARK  123  A    between atoms: _336  and  _337
REMARK  124  A    between atoms: _336  and  _339
REMARK  125  A    between atoms: _339  and  _340
REMARK  126  A    between atoms: _344  and  _345
REMARK  127  A    between atoms: _351  and  _352
REMARK  128  A    between atoms: _357  and  _359
REMARK  129  A    between atoms: _359  and  _360
REMARK  130  A    between atoms: _359  and  _362
REMARK  131  A    between atoms: _362  and  _363
REMARK  132  A    between atoms: _366  and  _368
REMARK  133  A    between atoms: _368  and  _369
REMARK  134  A    between atoms: _372  and  _374
REMARK  135  A    between atoms: _374  and  _375
REMARK  136  A    between atoms: _374  and  _377
REMARK  137  A    between atoms: _379  and  _381
REMARK  138  A    between atoms: _381  and  _382
REMARK  139  A    between atoms: _381  and  _384
REMARK  140  A    between atoms: _387  and  _389
REMARK  141  A    between atoms: _389  and  _390
REMARK  142  A    between atoms: _389  and  _392
REMARK  143  A    between atoms: _392  and  _393
REMARK  144  A    between atoms: _403  and  _405
REMARK  145  A    between atoms: _405  and  _406
REMARK  146  A    between atoms: _405  and  _408
REMARK  147  A    between atoms: _408  and  _409
REMARK  148  A    between atoms: _414  and  _416
REMARK  149  A    between atoms: _416  and  _417
REMARK  150  A    between atoms: _416  and  _419
REMARK  151  A    between atoms: _419  and  _420
REMARK  152  A    between atoms: _420  and  _421
REMARK  153  A    between atoms: _421  and  _422
REMARK                            x       y       z     vdW  Elec       q    Type
REMARK                         _______ _______ _______ _____ _____    ______ ____
ROOT
ATOM      1  C   GLU A   1      -1.843  -8.267  91.109  0.00  0.00    +0.238 C 
ATOM      2  O   GLU A   1      -1.051  -8.823  91.867  0.00  0.00    -0.274 OA
ATOM      3  N   HIS A   2      -3.019  -7.807  91.521  0.00  0.00    -0.298 N 
ATOM      4  H   HIS A   2      -3.589  -7.196  90.902  0.00  0.00    +0.150 HD
ENDROOT
BRANCH   1   5
ATOM      5  CA  GLU A   1      -1.514  -8.121  89.625  0.00  0.00    +0.145 C 
BRANCH   5   6
ATOM      6  N   GLU A   1      -2.540  -8.788  88.839  0.00  0.00    -0.238 NA
ATOM      7  H   GLU A   1      -3.407  -8.266  88.600  0.00  0.00    +0.142 HD
ENDBRANCH   5   6
BRANCH   5   8
ATOM      8  CB  GLU A   1      -1.413  -6.663  89.192  0.00  0.00    +0.038 C 
BRANCH   8   9
ATOM      9  CG  GLU A   1      -0.930  -6.556  87.741  0.00  0.00    +0.116 C 
BRANCH   9  10
ATOM     10  CD  GLU A   1      -0.303  -5.235  87.406  0.00  0.00    +0.365 C 
ATOM     11  OE2 GLU A   1      -0.947  -4.190  87.645  0.00  0.00    -0.246 OA
ATOM     12  OE1 GLU A   1       0.835  -5.239  86.879  0.00  0.00    -0.246 OA
ENDBRANCH   9  10
ENDBRANCH   8   9
ENDBRANCH   5   8
ENDBRANCH   1   5
BRANCH   3  13
ATOM     13  CA  HIS A   2      -3.505  -8.165  92.848  0.00  0.00    +0.143 C 
BRANCH  13  14
ATOM     14  C   HIS A   2      -3.814  -9.642  92.891  0.00  0.00    +0.227 C 
ATOM     15  O   HIS A   2      -4.140 -10.245  91.868  0.00  0.00    -0.286 OA
ENDBRANCH  13  14
BRANCH  13  16
ATOM     16  CB  HIS A   2      -4.736  -7.344  93.220  0.00  0.00    +0.075 C 
BRANCH  16  17
ATOM     17  CG  HIS A   2      -4.427  -5.891  93.380  0.00  0.00    +0.082 A 
ATOM     18  CD2 HIS A   2      -3.982  -5.199  94.453  0.00  0.00    +0.115 A 
ATOM     19  NE2 HIS A   2      -3.799  -3.900  94.040  0.00  0.00    -0.221 NA
ATOM     20  CE1 HIS A   2      -4.095  -3.809  92.759  0.00  0.00    +0.199 A 
ATOM     21  ND1 HIS A   2      -4.471  -5.006  92.328  0.00  0.00    -0.227 NA
ENDBRANCH  16  17
ENDBRANCH  13  16
ENDBRANCH   3  13
TORSDOF 9
REMARK  Name = ../refined-set-2016/4riv/4riv_pocket.pdb
REMARK  153 active torsions:
REMARK  status: ('A' for Active; 'I' for Inactive)
REMARK    1  A    between atoms: _1  and  _3
REMARK    2  A    between atoms: _3  and  _4
REMARK    3  A    between atoms: _3  and  _6
REMARK    4  A    between atoms: _6  and  _7
REMARK    5  A    between atoms: _17  and  _19
REMARK    6  A    between atoms: _19  and  _20
REMARK    7  A    between atoms: _19  and  _22
REMARK    8  A    between atoms: _22  and  _23
REMARK    9  A    between atoms: _28  and  _29
REMARK   10  A    between atoms: _31  and  _33
REMARK   11  A    between atoms: _33  and  _34
REMARK   12  A    between atoms: _33  and  _36
REMARK   13  A    between atoms: _36  and  _37
REMARK   14  A    between atoms: _47  and  _49
REMARK   15  A    between atoms: _49  and  _50
REMARK   16  A    between atoms: _49  and  _52
REMARK   17  A    between atoms: _52  and  _53
REMARK   18  A    between atoms: _56  and  _57
REMARK   19  A    between atoms: _62  and  _64
REMARK   20  A    between atoms: _64  and  _65
REMARK   21  A    between atoms: _64  and  _67
REMARK   22  A    between atoms: _67  and  _68
REMARK   23  A    between atoms: _73  and  _75
REMARK   24  A    between atoms: _75  and  _76
REMARK   25  A    between atoms: _75  and  _78
REMARK   26  A    between atoms: _78  and  _79
REMARK   27  A    between atoms: _84  and  _86
REMARK   28  A    between atoms: _86  and  _87
REMARK   29  A    between atoms: _86  and  _89
REMARK   30  A    between atoms: _89  and  _90
REMARK   31  A    between atoms: _92  and  _94
REMARK   32  A    between atoms: _94  and  _95
REMARK   33  A    between atoms: _94  and  _97
REMARK   34  A    between atoms: _97  and  _98
REMARK   35  A    between atoms: _98  and  _99
REMARK   36  A    between atoms: _104  and  _106
REMARK   37  A    between atoms: _106  and  _107
REMARK   38  A    between atoms: _106  and  _109
REMARK   39  A    between atoms: _109  and  _110
REMARK   40  A    between atoms: _113  and  _115
REMARK   41  A    between atoms: _115  and  _116
REMARK   42  A    between atoms: _115  and  _118
REMARK   43  A    between atoms: _118  and  _119
REMARK   44  A    between atoms: _119  and  _120
REMARK   45  A    between atoms: _125  and  _127
REMARK   46  A    between atoms: _127  and  _128
REMARK   47  A    between atoms: _127  and  _130
REMARK   48  A    between atoms: _130  and  _131
REMARK   49  A    between atoms: _137  and  _139
REMARK   50  A    between atoms: _150  and  _153
REMARK   51  A    between atoms: _153  and  _154
REMARK   52  A    between atoms: _162  and  _163
REMARK   53  A    between atoms: _171  and  _173
REMARK   54  A    between atoms: _173  and  _174
REMARK   55  A    between atoms: _173  and  _176
REMARK   56  A    between atoms: _176  and  _177
REMARK   57  A    between atoms: _177  and  _178
REMARK   58  A    between atoms: _181  and  _183
REMARK   59  A    between atoms: _183  and  _184
REMARK   60  A    between atoms: _183  and  _186
REMARK   61  A    between atoms: _186  and  _187
REMARK   62  A    between atoms: _192  and  _194
REMARK   63  A    between atoms: _194  and  _195
REMARK   64  A    between atoms: _194  and  _197
REMARK   65  A    between atoms: _197  and  _198
REMARK   66  A    between atoms: _198  and  _199
REMARK   67  A    between atoms: _202  and  _204
REMARK   68  A    between atoms: _204  and  _205
REMARK   69  A    between atoms: _204  and  _207
REMARK   70  A    between atoms: _207  and  _208
REMARK   71  A    between atoms: _211  and  _213
REMARK   72  A    between atoms: _213  and  _214
REMARK   73  A    between atoms: _213  and  _216
REMARK   74  A    between atoms: _216  and  _217
REMARK   75  A    between atoms: _218  and  ZN_431
REMARK   76  A    between atoms: _222  and  _224
REMARK   77  A    between atoms: _224  and  _225
REMARK   78  A    between atoms: _224  and  _227
REMARK   79  A    between atoms: _227  and  _228
REMARK   80  A    between atoms: _231  and  _233
REMARK   81  A    between atoms: _233  and  _234
REMARK   82  A    between atoms: _233  and  _236
REMARK   83  A    between atoms: _239  and  _241
REMARK   84  A    between atoms: _241  and  _242
REMARK   85  A    between atoms: _241  and  _244
REMARK   86  A    between atoms: _244  and  _245
REMARK   87  A    between atoms: _250  and  _252
REMARK   88  A    between atoms: _252  and  _253
REMARK   89  A    between atoms: _252  and  _255
REMARK   90  A    between atoms: _258  and  _260
REMARK   91  A    between atoms: _260  and  _261
REMARK   92  A    between atoms: _260  and  _263
REMARK   93  A    between atoms: _266  and  _268
REMARK   94  A    between atoms: _268  and  _269
REMARK   95  A    between atoms: _268  and  _271
REMARK   96  A    between atoms: _271  and  _272
REMARK   97  A    between atoms: _275  and  _277
REMARK   98  A    between atoms: _277  and  _278
REMARK   99  A    between atoms: _281  and  _283
REMARK  100  A    between atoms: _283  and  _284
REMARK  101  A    between atoms: _283  and  _286
REMARK  102  A    between atoms: _289  and  _291
REMARK  103  A    between atoms: _291  and  _292
REMARK  104  A    between atoms: _291  and  _294
REMARK  105  A    between atoms: _294  and  _295
REMARK  106  A    between atoms: _298  and  _300
REMARK  107  A    between atoms: _300  and  _301
REMARK  108  A    between atoms: _303  and  _305
REMARK  109  A    between atoms: _305  and  _306
REMARK  110  A    between atoms: _308  and  _310
REMARK  111  A    between atoms: _310  and  _311
REMARK  112  A    between atoms: _310  and  _313
REMARK  113  A    between atoms: _313  and  _314
REMARK  114  A    between atoms: _316  and  _318
REMARK  115  A    between atoms: _318  and  _319
REMARK  116  A    between atoms: _318  and  _321
REMARK  117  A    between atoms: _321  and  _322
REMARK  118  A    between atoms: _325  and  _327
REMARK  119  A    between atoms: _327  and  _328
REMARK  120  A    between atoms: _327  and  _330
REMARK  121  A    between atoms: _330  and  _331
REMARK  122  A    between atoms: _334  and  _336
REMARK  123  A    between atoms: _336  and  _337
REMARK  124  A    between atoms: _336  and  _339
REMARK  125  A    between atoms: _339  and  _340
REMARK  126  A    between atoms: _344  and  _345
REMARK  127  A    between atoms: _351  and  _352
REMARK  128  A    between atoms: _357  and  _359
REMARK  129  A    between atoms: _359  and  _360
REMARK  130  A    between atoms: _359  and  _362
REMARK  131  A    between atoms: _362  and  _363
REMARK  132  A    between atoms: _366  and  _368
REMARK  133  A    between atoms: _368  and  _369
REMARK  134  A    between atoms: _372  and  _374
REMARK  135  A    between atoms: _374  and  _375
REMARK  136  A    between atoms: _374  and  _377
REMARK  137  A    between atoms: _379  and  _381
REMARK  138  A    between atoms: _381  and  _382
REMARK  139  A    between atoms: _381  and  _384
REMARK  140  A    between atoms: _387  and  _389
REMARK  141  A    between atoms: _389  and  _390
REMARK  142  A    between atoms: _389  and  _392
REMARK  143  A    between atoms: _392  and  _393
REMARK  144  A    between atoms: _403  and  _405
REMARK  145  A    between atoms: _405  and  _406
REMARK  146  A    between atoms: _405  and  _408
REMARK  147  A    between atoms: _408  and  _409
REMARK  148  A    between atoms: _414  and  _416
REMARK  149  A    between atoms: _416  and  _417
REMARK  150  A    between atoms: _416  and  _419
REMARK  151  A    between atoms: _419  and  _420
REMARK  152  A    between atoms: _420  and  _421
REMARK  153  A    between atoms: _421  and  _422
REMARK                            x       y       z     vdW  Elec       q    Type
REMARK                         _______ _______ _______ _____ _____    ______ ____
ROOT
ATOM      1  CA  VAL A   1      -3.434  13.908  85.274  0.00  0.00    +0.133 C 
ENDROOT
BRANCH   1   2
ATOM      2  CB  VAL A   1      -3.705  12.746  84.292  0.00  0.00    +0.023 C 
ATOM      3  CG2 VAL A   1      -3.338  11.415  84.939  0.00  0.00    +0.002 C 
ATOM      4  CG1 VAL A   1      -2.968  12.939  82.977  0.00  0.00    +0.002 C 
ENDBRANCH   1   2
BRANCH   1   5
ATOM      5  N   VAL A   1      -3.915  15.175  84.747  0.00  0.00    -0.239 NA
ATOM      6  H   VAL A   1      -4.181  15.253  83.745  0.00  0.00    +0.142 HD
ENDBRANCH   1   5
BRANCH   1   7
ATOM      7  C   VAL A   1      -1.949  13.981  85.629  0.00  0.00    +0.224 C 
ATOM      8  O   VAL A   1      -1.523  13.368  86.603  0.00  0.00    -0.287 OA
ENDBRANCH   1   7
TORSDOF 3
REMARK  Name = ../refined-set-2016/4riv/4riv_pocket.pdb
REMARK  153 active torsions:
REMARK  status: ('A' for Active; 'I' for Inactive)
REMARK    1  A    between atoms: _1  and  _3
REMARK    2  A    between atoms: _3  and  _4
REMARK    3  A    between atoms: _3  and  _6
REMARK    4  A    between atoms: _6  and  _7
REMARK    5  A    between atoms: _17  and  _19
REMARK    6  A    between atoms: _19  and  _20
REMARK    7  A    between atoms: _19  and  _22
REMARK    8  A    between atoms: _22  and  _23
REMARK    9  A    between atoms: _28  and  _29
REMARK   10  A    between atoms: _31  and  _33
REMARK   11  A    between atoms: _33  and  _34
REMARK   12  A    between atoms: _33  and  _36
REMARK   13  A    between atoms: _36  and  _37
REMARK   14  A    between atoms: _47  and  _49
REMARK   15  A    between atoms: _49  and  _50
REMARK   16  A    between atoms: _49  and  _52
REMARK   17  A    between atoms: _52  and  _53
REMARK   18  A    between atoms: _56  and  _57
REMARK   19  A    between atoms: _62  and  _64
REMARK   20  A    between atoms: _64  and  _65
REMARK   21  A    between atoms: _64  and  _67
REMARK   22  A    between atoms: _67  and  _68
REMARK   23  A    between atoms: _73  and  _75
REMARK   24  A    between atoms: _75  and  _76
REMARK   25  A    between atoms: _75  and  _78
REMARK   26  A    between atoms: _78  and  _79
REMARK   27  A    between atoms: _84  and  _86
REMARK   28  A    between atoms: _86  and  _87
REMARK   29  A    between atoms: _86  and  _89
REMARK   30  A    between atoms: _89  and  _90
REMARK   31  A    between atoms: _92  and  _94
REMARK   32  A    between atoms: _94  and  _95
REMARK   33  A    between atoms: _94  and  _97
REMARK   34  A    between atoms: _97  and  _98
REMARK   35  A    between atoms: _98  and  _99
REMARK   36  A    between atoms: _104  and  _106
REMARK   37  A    between atoms: _106  and  _107
REMARK   38  A    between atoms: _106  and  _109
REMARK   39  A    between atoms: _109  and  _110
REMARK   40  A    between atoms: _113  and  _115
REMARK   41  A    between atoms: _115  and  _116
REMARK   42  A    between atoms: _115  and  _118
REMARK   43  A    between atoms: _118  and  _119
REMARK   44  A    between atoms: _119  and  _120
REMARK   45  A    between atoms: _125  and  _127
REMARK   46  A    between atoms: _127  and  _128
REMARK   47  A    between atoms: _127  and  _130
REMARK   48  A    between atoms: _130  and  _131
REMARK   49  A    between atoms: _137  and  _139
REMARK   50  A    between atoms: _150  and  _153
REMARK   51  A    between atoms: _153  and  _154
REMARK   52  A    between atoms: _162  and  _163
REMARK   53  A    between atoms: _171  and  _173
REMARK   54  A    between atoms: _173  and  _174
REMARK   55  A    between atoms: _173  and  _176
REMARK   56  A    between atoms: _176  and  _177
REMARK   57  A    between atoms: _177  and  _178
REMARK   58  A    between atoms: _181  and  _183
REMARK   59  A    between atoms: _183  and  _184
REMARK   60  A    between atoms: _183  and  _186
REMARK   61  A    between atoms: _186  and  _187
REMARK   62  A    between atoms: _192  and  _194
REMARK   63  A    between atoms: _194  and  _195
REMARK   64  A    between atoms: _194  and  _197
REMARK   65  A    between atoms: _197  and  _198
REMARK   66  A    between atoms: _198  and  _199
REMARK   67  A    between atoms: _202  and  _204
REMARK   68  A    between atoms: _204  and  _205
REMARK   69  A    between atoms: _204  and  _207
REMARK   70  A    between atoms: _207  and  _208
REMARK   71  A    between atoms: _211  and  _213
REMARK   72  A    between atoms: _213  and  _214
REMARK   73  A    between atoms: _213  and  _216
REMARK   74  A    between atoms: _216  and  _217
REMARK   75  A    between atoms: _218  and  ZN_431
REMARK   76  A    between atoms: _222  and  _224
REMARK   77  A    between atoms: _224  and  _225
REMARK   78  A    between atoms: _224  and  _227
REMARK   79  A    between atoms: _227  and  _228
REMARK   80  A    between atoms: _231  and  _233
REMARK   81  A    between atoms: _233  and  _234
REMARK   82  A    between atoms: _233  and  _236
REMARK   83  A    between atoms: _239  and  _241
REMARK   84  A    between atoms: _241  and  _242
REMARK   85  A    between atoms: _241  and  _244
REMARK   86  A    between atoms: _244  and  _245
REMARK   87  A    between atoms: _250  and  _252
REMARK   88  A    between atoms: _252  and  _253
REMARK   89  A    between atoms: _252  and  _255
REMARK   90  A    between atoms: _258  and  _260
REMARK   91  A    between atoms: _260  and  _261
REMARK   92  A    between atoms: _260  and  _263
REMARK   93  A    between atoms: _266  and  _268
REMARK   94  A    between atoms: _268  and  _269
REMARK   95  A    between atoms: _268  and  _271
REMARK   96  A    between atoms: _271  and  _272
REMARK   97  A    between atoms: _275  and  _277
REMARK   98  A    between atoms: _277  and  _278
REMARK   99  A    between atoms: _281  and  _283
REMARK  100  A    between atoms: _283  and  _284
REMARK  101  A    between atoms: _283  and  _286
REMARK  102  A    between atoms: _289  and  _291
REMARK  103  A    between atoms: _291  and  _292
REMARK  104  A    between atoms: _291  and  _294
REMARK  105  A    between atoms: _294  and  _295
REMARK  106  A    between atoms: _298  and  _300
REMARK  107  A    between atoms: _300  and  _301
REMARK  108  A    between atoms: _303  and  _305
REMARK  109  A    between atoms: _305  and  _306
REMARK  110  A    between atoms: _308  and  _310
REMARK  111  A    between atoms: _310  and  _311
REMARK  112  A    between atoms: _310  and  _313
REMARK  113  A    between atoms: _313  and  _314
REMARK  114  A    between atoms: _316  and  _318
REMARK  115  A    between atoms: _318  and  _319
REMARK  116  A    between atoms: _318  and  _321
REMARK  117  A    between atoms: _321  and  _322
REMARK  118  A    between atoms: _325  and  _327
REMARK  119  A    between atoms: _327  and  _328
REMARK  120  A    between atoms: _327  and  _330
REMARK  121  A    between atoms: _330  and  _331
REMARK  122  A    between atoms: _334  and  _336
REMARK  123  A    between atoms: _336  and  _337
REMARK  124  A    between atoms: _336  and  _339
REMARK  125  A    between atoms: _339  and  _340
REMARK  126  A    between atoms: _344  and  _345
REMARK  127  A    between atoms: _351  and  _352
REMARK  128  A    between atoms: _357  and  _359
REMARK  129  A    between atoms: _359  and  _360
REMARK  130  A    between atoms: _359  and  _362
REMARK  131  A    between atoms: _362  and  _363
REMARK  132  A    between atoms: _366  and  _368
REMARK  133  A    between atoms: _368  and  _369
REMARK  134  A    between atoms: _372  and  _374
REMARK  135  A    between atoms: _374  and  _375
REMARK  136  A    between atoms: _374  and  _377
REMARK  137  A    between atoms: _379  and  _381
REMARK  138  A    between atoms: _381  and  _382
REMARK  139  A    between atoms: _381  and  _384
REMARK  140  A    between atoms: _387  and  _389
REMARK  141  A    between atoms: _389  and  _390
REMARK  142  A    between atoms: _389  and  _392
REMARK  143  A    between atoms: _392  and  _393
REMARK  144  A    between atoms: _403  and  _405
REMARK  145  A    between atoms: _405  and  _406
REMARK  146  A    between atoms: _405  and  _408
REMARK  147  A    between atoms: _408  and  _409
REMARK  148  A    between atoms: _414  and  _416
REMARK  149  A    between atoms: _416  and  _417
REMARK  150  A    between atoms: _416  and  _419
REMARK  151  A    between atoms: _419  and  _420
REMARK  152  A    between atoms: _420  and  _421
REMARK  153  A    between atoms: _421  and  _422
REMARK                            x       y       z     vdW  Elec       q    Type
REMARK                         _______ _______ _______ _____ _____    ______ ____
ROOT
ATOM      1  CA  VAL A   1       0.268  11.676  89.759  0.00  0.00    +0.133 C 
ENDROOT
BRANCH   1   2
ATOM      2  CB  VAL A   1       0.925  11.043  88.507  0.00  0.00    +0.023 C 
ATOM      3  CG2 VAL A   1       1.676  12.057  87.707  0.00  0.00    +0.002 C 
ATOM      4  CG1 VAL A   1      -0.130  10.332  87.647  0.00  0.00    +0.002 C 
ENDBRANCH   1   2
BRANCH   1   5
ATOM      5  N   VAL A   1      -0.644  12.788  89.433  0.00  0.00    -0.239 NA
ATOM      6  H   VAL A   1      -0.631  13.210  88.483  0.00  0.00    +0.142 HD
ENDBRANCH   1   5
BRANCH   1   7
ATOM      7  C   VAL A   1       1.357  12.120  90.750  0.00  0.00    +0.224 C 
ATOM      8  O   VAL A   1       2.059  11.287  91.326  0.00  0.00    -0.287 OA
ENDBRANCH   1   7
TORSDOF 3
REMARK  Name = ../refined-set-2016/4riv/4riv_pocket.pdb
REMARK  153 active torsions:
REMARK  status: ('A' for Active; 'I' for Inactive)
REMARK    1  A    between atoms: _1  and  _3
REMARK    2  A    between atoms: _3  and  _4
REMARK    3  A    between atoms: _3  and  _6
REMARK    4  A    between atoms: _6  and  _7
REMARK    5  A    between atoms: _17  and  _19
REMARK    6  A    between atoms: _19  and  _20
REMARK    7  A    between atoms: _19  and  _22
REMARK    8  A    between atoms: _22  and  _23
REMARK    9  A    between atoms: _28  and  _29
REMARK   10  A    between atoms: _31  and  _33
REMARK   11  A    between atoms: _33  and  _34
REMARK   12  A    between atoms: _33  and  _36
REMARK   13  A    between atoms: _36  and  _37
REMARK   14  A    between atoms: _47  and  _49
REMARK   15  A    between atoms: _49  and  _50
REMARK   16  A    between atoms: _49  and  _52
REMARK   17  A    between atoms: _52  and  _53
REMARK   18  A    between atoms: _56  and  _57
REMARK   19  A    between atoms: _62  and  _64
REMARK   20  A    between atoms: _64  and  _65
REMARK   21  A    between atoms: _64  and  _67
REMARK   22  A    between atoms: _67  and  _68
REMARK   23  A    between atoms: _73  and  _75
REMARK   24  A    between atoms: _75  and  _76
REMARK   25  A    between atoms: _75  and  _78
REMARK   26  A    between atoms: _78  and  _79
REMARK   27  A    between atoms: _84  and  _86
REMARK   28  A    between atoms: _86  and  _87
REMARK   29  A    between atoms: _86  and  _89
REMARK   30  A    between atoms: _89  and  _90
REMARK   31  A    between atoms: _92  and  _94
REMARK   32  A    between atoms: _94  and  _95
REMARK   33  A    between atoms: _94  and  _97
REMARK   34  A    between atoms: _97  and  _98
REMARK   35  A    between atoms: _98  and  _99
REMARK   36  A    between atoms: _104  and  _106
REMARK   37  A    between atoms: _106  and  _107
REMARK   38  A    between atoms: _106  and  _109
REMARK   39  A    between atoms: _109  and  _110
REMARK   40  A    between atoms: _113  and  _115
REMARK   41  A    between atoms: _115  and  _116
REMARK   42  A    between atoms: _115  and  _118
REMARK   43  A    between atoms: _118  and  _119
REMARK   44  A    between atoms: _119  and  _120
REMARK   45  A    between atoms: _125  and  _127
REMARK   46  A    between atoms: _127  and  _128
REMARK   47  A    between atoms: _127  and  _130
REMARK   48  A    between atoms: _130  and  _131
REMARK   49  A    between atoms: _137  and  _139
REMARK   50  A    between atoms: _150  and  _153
REMARK   51  A    between atoms: _153  and  _154
REMARK   52  A    between atoms: _162  and  _163
REMARK   53  A    between atoms: _171  and  _173
REMARK   54  A    between atoms: _173  and  _174
REMARK   55  A    between atoms: _173  and  _176
REMARK   56  A    between atoms: _176  and  _177
REMARK   57  A    between atoms: _177  and  _178
REMARK   58  A    between atoms: _181  and  _183
REMARK   59  A    between atoms: _183  and  _184
REMARK   60  A    between atoms: _183  and  _186
REMARK   61  A    between atoms: _186  and  _187
REMARK   62  A    between atoms: _192  and  _194
REMARK   63  A    between atoms: _194  and  _195
REMARK   64  A    between atoms: _194  and  _197
REMARK   65  A    between atoms: _197  and  _198
REMARK   66  A    between atoms: _198  and  _199
REMARK   67  A    between atoms: _202  and  _204
REMARK   68  A    between atoms: _204  and  _205
REMARK   69  A    between atoms: _204  and  _207
REMARK   70  A    between atoms: _207  and  _208
REMARK   71  A    between atoms: _211  and  _213
REMARK   72  A    between atoms: _213  and  _214
REMARK   73  A    between atoms: _213  and  _216
REMARK   74  A    between atoms: _216  and  _217
REMARK   75  A    between atoms: _218  and  ZN_431
REMARK   76  A    between atoms: _222  and  _224
REMARK   77  A    between atoms: _224  and  _225
REMARK   78  A    between atoms: _224  and  _227
REMARK   79  A    between atoms: _227  and  _228
REMARK   80  A    between atoms: _231  and  _233
REMARK   81  A    between atoms: _233  and  _234
REMARK   82  A    between atoms: _233  and  _236
REMARK   83  A    between atoms: _239  and  _241
REMARK   84  A    between atoms: _241  and  _242
REMARK   85  A    between atoms: _241  and  _244
REMARK   86  A    between atoms: _244  and  _245
REMARK   87  A    between atoms: _250  and  _252
REMARK   88  A    between atoms: _252  and  _253
REMARK   89  A    between atoms: _252  and  _255
REMARK   90  A    between atoms: _258  and  _260
REMARK   91  A    between atoms: _260  and  _261
REMARK   92  A    between atoms: _260  and  _263
REMARK   93  A    between atoms: _266  and  _268
REMARK   94  A    between atoms: _268  and  _269
REMARK   95  A    between atoms: _268  and  _271
REMARK   96  A    between atoms: _271  and  _272
REMARK   97  A    between atoms: _275  and  _277
REMARK   98  A    between atoms: _277  and  _278
REMARK   99  A    between atoms: _281  and  _283
REMARK  100  A    between atoms: _283  and  _284
REMARK  101  A    between atoms: _283  and  _286
REMARK  102  A    between atoms: _289  and  _291
REMARK  103  A    between atoms: _291  and  _292
REMARK  104  A    between atoms: _291  and  _294
REMARK  105  A    between atoms: _294  and  _295
REMARK  106  A    between atoms: _298  and  _300
REMARK  107  A    between atoms: _300  and  _301
REMARK  108  A    between atoms: _303  and  _305
REMARK  109  A    between atoms: _305  and  _306
REMARK  110  A    between atoms: _308  and  _310
REMARK  111  A    between atoms: _310  and  _311
REMARK  112  A    between atoms: _310  and  _313
REMARK  113  A    between atoms: _313  and  _314
REMARK  114  A    between atoms: _316  and  _318
REMARK  115  A    between atoms: _318  and  _319
REMARK  116  A    between atoms: _318  and  _321
REMARK  117  A    between atoms: _321  and  _322
REMARK  118  A    between atoms: _325  and  _327
REMARK  119  A    between atoms: _327  and  _328
REMARK  120  A    between atoms: _327  and  _330
REMARK  121  A    between atoms: _330  and  _331
REMARK  122  A    between atoms: _334  and  _336
REMARK  123  A    between atoms: _336  and  _337
REMARK  124  A    between atoms: _336  and  _339
REMARK  125  A    between atoms: _339  and  _340
REMARK  126  A    between atoms: _344  and  _345
REMARK  127  A    between atoms: _351  and  _352
REMARK  128  A    between atoms: _357  and  _359
REMARK  129  A    between atoms: _359  and  _360
REMARK  130  A    between atoms: _359  and  _362
REMARK  131  A    between atoms: _362  and  _363
REMARK  132  A    between atoms: _366  and  _368
REMARK  133  A    between atoms: _368  and  _369
REMARK  134  A    between atoms: _372  and  _374
REMARK  135  A    between atoms: _374  and  _375
REMARK  136  A    between atoms: _374  and  _377
REMARK  137  A    between atoms: _379  and  _381
REMARK  138  A    between atoms: _381  and  _382
REMARK  139  A    between atoms: _381  and  _384
REMARK  140  A    between atoms: _387  and  _389
REMARK  141  A    between atoms: _389  and  _390
REMARK  142  A    between atoms: _389  and  _392
REMARK  143  A    between atoms: _392  and  _393
REMARK  144  A    between atoms: _403  and  _405
REMARK  145  A    between atoms: _405  and  _406
REMARK  146  A    between atoms: _405  and  _408
REMARK  147  A    between atoms: _408  and  _409
REMARK  148  A    between atoms: _414  and  _416
REMARK  149  A    between atoms: _416  and  _417
REMARK  150  A    between atoms: _416  and  _419
REMARK  151  A    between atoms: _419  and  _420
REMARK  152  A    between atoms: _420  and  _421
REMARK  153  A    between atoms: _421  and  _422
REMARK                            x       y       z     vdW  Elec       q    Type
REMARK                         _______ _______ _______ _____ _____    ______ ____
ROOT
ATOM      1  CA  VAL A   3      -7.908   2.931  90.036  0.00  0.00    +0.149 C 
ENDROOT
BRANCH   1   3
ATOM      2  C   ALA A   2      -8.265   5.201  90.754  0.00  0.00    +0.241 C 
ATOM      3  N   VAL A   3      -7.826   3.980  91.035  0.00  0.00    -0.297 N 
ATOM      4  H   VAL A   3      -7.423   3.775  91.972  0.00  0.00    +0.150 HD
ATOM      5  O   ALA A   2      -8.678   5.521  89.648  0.00  0.00    -0.273 OA
BRANCH   2   6
ATOM      6  CA  ALA A   2      -8.181   6.230  91.863  0.00  0.00    +0.149 C 
ATOM      7  CB  ALA A   2      -9.563   6.647  92.325  0.00  0.00    +0.031 C 
BRANCH   6  10
ATOM      8  C   LEU A   1      -6.383   7.855  91.999  0.00  0.00    +0.238 C 
ATOM      9  O   LEU A   1      -6.109   7.571  93.169  0.00  0.00    -0.274 OA
ATOM     10  N   ALA A   2      -7.433   7.371  91.355  0.00  0.00    -0.297 N 
ATOM     11  H   ALA A   2      -7.731   7.817  90.464  0.00  0.00    +0.150 HD
BRANCH   8  12
ATOM     12  CA  LEU A   1      -5.519   8.809  91.202  0.00  0.00    +0.145 C 
BRANCH  12  13
ATOM     13  N   LEU A   1      -4.844   9.759  92.077  0.00  0.00    -0.238 NA
ATOM     14  H   LEU A   1      -4.233   9.403  92.840  0.00  0.00    +0.142 HD
ENDBRANCH  12  13
BRANCH  12  15
ATOM     15  CB  LEU A   1      -4.510   7.995  90.381  0.00  0.00    +0.026 C 
BRANCH  15  16
ATOM     16  CG  LEU A   1      -3.567   8.677  89.390  0.00  0.00    +0.002 C 
ATOM     17  CD2 LEU A   1      -2.715   7.632  88.692  0.00  0.00    +0.000 C 
ATOM     18  CD1 LEU A   1      -4.324   9.497  88.363  0.00  0.00    +0.000 C 
ENDBRANCH  15  16
ENDBRANCH  12  15
ENDBRANCH   8  12
ENDBRANCH   6  10
ENDBRANCH   2   6
ENDBRANCH   1   3
BRANCH   1  19
ATOM     19  C   VAL A   3      -8.882   1.884  90.516  0.00  0.00    +0.241 C 
ATOM     20  O   VAL A   3      -8.769   1.383  91.635  0.00  0.00    -0.273 OA
ATOM     21  N   LEU A   4      -9.857   1.588  89.660  0.00  0.00    -0.297 N 
ATOM     22  H   LEU A   4      -9.917   2.122  88.769  0.00  0.00    +0.150 HD
BRANCH  21  23
ATOM     23  CA  LEU A   4     -10.837   0.556  89.915  0.00  0.00    +0.149 C 
BRANCH  23  24
ATOM     24  C   LEU A   4     -10.290  -0.714  89.270  0.00  0.00    +0.241 C 
ATOM     25  N   GLY A   5     -10.007  -1.716  90.100  0.00  0.00    -0.296 N 
ATOM     26  H   GLY A   5     -10.199  -1.594  91.115  0.00  0.00    +0.150 HD
ATOM     27  O   LEU A   4     -10.080  -0.759  88.056  0.00  0.00    -0.273 OA
BRANCH  25  28
ATOM     28  CA  GLY A   5      -9.438  -2.978  89.642  0.00  0.00    +0.163 C 
BRANCH  28  29
ATOM     29  C   GLY A   5     -10.482  -4.075  89.629  0.00  0.00    +0.229 C 
ATOM     30  O   GLY A   5     -11.215  -4.245  90.593  0.00  0.00    -0.286 OA
ENDBRANCH  28  29
ENDBRANCH  25  28
ENDBRANCH  23  24
BRANCH  23  31
ATOM     31  CB  LEU A   4     -12.201   0.968  89.339  0.00  0.00    +0.029 C 
BRANCH  31  32
ATOM     32  CG  LEU A   4     -13.397   0.041  89.531  0.00  0.00    +0.002 C 
ATOM     33  CD2 LEU A   4     -13.690  -0.179  91.001  0.00  0.00    +0.000 C 
ATOM     34  CD1 LEU A   4     -14.617   0.625  88.831  0.00  0.00    +0.000 C 
ENDBRANCH  31  32
ENDBRANCH  23  31
ENDBRANCH  21  23
ENDBRANCH   1  19
BRANCH   1  35
ATOM     35  CB  VAL A   3      -6.549   2.276  89.746  0.00  0.00    +0.027 C 
ATOM     36  CG2 VAL A   3      -5.543   3.323  89.317  0.00  0.00    +0.002 C 
ATOM     37  CG1 VAL A   3      -6.703   1.235  88.637  0.00  0.00    +0.002 C 
ENDBRANCH   1  35
TORSDOF 15
REMARK  Name = ../refined-set-2016/4riv/4riv_pocket.pdb
REMARK  153 active torsions:
REMARK  status: ('A' for Active; 'I' for Inactive)
REMARK    1  A    between atoms: _1  and  _3
REMARK    2  A    between atoms: _3  and  _4
REMARK    3  A    between atoms: _3  and  _6
REMARK    4  A    between atoms: _6  and  _7
REMARK    5  A    between atoms: _17  and  _19
REMARK    6  A    between atoms: _19  and  _20
REMARK    7  A    between atoms: _19  and  _22
REMARK    8  A    between atoms: _22  and  _23
REMARK    9  A    between atoms: _28  and  _29
REMARK   10  A    between atoms: _31  and  _33
REMARK   11  A    between atoms: _33  and  _34
REMARK   12  A    between atoms: _33  and  _36
REMARK   13  A    between atoms: _36  and  _37
REMARK   14  A    between atoms: _47  and  _49
REMARK   15  A    between atoms: _49  and  _50
REMARK   16  A    between atoms: _49  and  _52
REMARK   17  A    between atoms: _52  and  _53
REMARK   18  A    between atoms: _56  and  _57
REMARK   19  A    between atoms: _62  and  _64
REMARK   20  A    between atoms: _64  and  _65
REMARK   21  A    between atoms: _64  and  _67
REMARK   22  A    between atoms: _67  and  _68
REMARK   23  A    between atoms: _73  and  _75
REMARK   24  A    between atoms: _75  and  _76
REMARK   25  A    between atoms: _75  and  _78
REMARK   26  A    between atoms: _78  and  _79
REMARK   27  A    between atoms: _84  and  _86
REMARK   28  A    between atoms: _86  and  _87
REMARK   29  A    between atoms: _86  and  _89
REMARK   30  A    between atoms: _89  and  _90
REMARK   31  A    between atoms: _92  and  _94
REMARK   32  A    between atoms: _94  and  _95
REMARK   33  A    between atoms: _94  and  _97
REMARK   34  A    between atoms: _97  and  _98
REMARK   35  A    between atoms: _98  and  _99
REMARK   36  A    between atoms: _104  and  _106
REMARK   37  A    between atoms: _106  and  _107
REMARK   38  A    between atoms: _106  and  _109
REMARK   39  A    between atoms: _109  and  _110
REMARK   40  A    between atoms: _113  and  _115
REMARK   41  A    between atoms: _115  and  _116
REMARK   42  A    between atoms: _115  and  _118
REMARK   43  A    between atoms: _118  and  _119
REMARK   44  A    between atoms: _119  and  _120
REMARK   45  A    between atoms: _125  and  _127
REMARK   46  A    between atoms: _127  and  _128
REMARK   47  A    between atoms: _127  and  _130
REMARK   48  A    between atoms: _130  and  _131
REMARK   49  A    between atoms: _137  and  _139
REMARK   50  A    between atoms: _150  and  _153
REMARK   51  A    between atoms: _153  and  _154
REMARK   52  A    between atoms: _162  and  _163
REMARK   53  A    between atoms: _171  and  _173
REMARK   54  A    between atoms: _173  and  _174
REMARK   55  A    between atoms: _173  and  _176
REMARK   56  A    between atoms: _176  and  _177
REMARK   57  A    between atoms: _177  and  _178
REMARK   58  A    between atoms: _181  and  _183
REMARK   59  A    between atoms: _183  and  _184
REMARK   60  A    between atoms: _183  and  _186
REMARK   61  A    between atoms: _186  and  _187
REMARK   62  A    between atoms: _192  and  _194
REMARK   63  A    between atoms: _194  and  _195
REMARK   64  A    between atoms: _194  and  _197
REMARK   65  A    between atoms: _197  and  _198
REMARK   66  A    between atoms: _198  and  _199
REMARK   67  A    between atoms: _202  and  _204
REMARK   68  A    between atoms: _204  and  _205
REMARK   69  A    between atoms: _204  and  _207
REMARK   70  A    between atoms: _207  and  _208
REMARK   71  A    between atoms: _211  and  _213
REMARK   72  A    between atoms: _213  and  _214
REMARK   73  A    between atoms: _213  and  _216
REMARK   74  A    between atoms: _216  and  _217
REMARK   75  A    between atoms: _218  and  ZN_431
REMARK   76  A    between atoms: _222  and  _224
REMARK   77  A    between atoms: _224  and  _225
REMARK   78  A    between atoms: _224  and  _227
REMARK   79  A    between atoms: _227  and  _228
REMARK   80  A    between atoms: _231  and  _233
REMARK   81  A    between atoms: _233  and  _234
REMARK   82  A    between atoms: _233  and  _236
REMARK   83  A    between atoms: _239  and  _241
REMARK   84  A    between atoms: _241  and  _242
REMARK   85  A    between atoms: _241  and  _244
REMARK   86  A    between atoms: _244  and  _245
REMARK   87  A    between atoms: _250  and  _252
REMARK   88  A    between atoms: _252  and  _253
REMARK   89  A    between atoms: _252  and  _255
REMARK   90  A    between atoms: _258  and  _260
REMARK   91  A    between atoms: _260  and  _261
REMARK   92  A    between atoms: _260  and  _263
REMARK   93  A    between atoms: _266  and  _268
REMARK   94  A    between atoms: _268  and  _269
REMARK   95  A    between atoms: _268  and  _271
REMARK   96  A    between atoms: _271  and  _272
REMARK   97  A    between atoms: _275  and  _277
REMARK   98  A    between atoms: _277  and  _278
REMARK   99  A    between atoms: _281  and  _283
REMARK  100  A    between atoms: _283  and  _284
REMARK  101  A    between atoms: _283  and  _286
REMARK  102  A    between atoms: _289  and  _291
REMARK  103  A    between atoms: _291  and  _292
REMARK  104  A    between atoms: _291  and  _294
REMARK  105  A    between atoms: _294  and  _295
REMARK  106  A    between atoms: _298  and  _300
REMARK  107  A    between atoms: _300  and  _301
REMARK  108  A    between atoms: _303  and  _305
REMARK  109  A    between atoms: _305  and  _306
REMARK  110  A    between atoms: _308  and  _310
REMARK  111  A    between atoms: _310  and  _311
REMARK  112  A    between atoms: _310  and  _313
REMARK  113  A    between atoms: _313  and  _314
REMARK  114  A    between atoms: _316  and  _318
REMARK  115  A    between atoms: _318  and  _319
REMARK  116  A    between atoms: _318  and  _321
REMARK  117  A    between atoms: _321  and  _322
REMARK  118  A    between atoms: _325  and  _327
REMARK  119  A    between atoms: _327  and  _328
REMARK  120  A    between atoms: _327  and  _330
REMARK  121  A    between atoms: _330  and  _331
REMARK  122  A    between atoms: _334  and  _336
REMARK  123  A    between atoms: _336  and  _337
REMARK  124  A    between atoms: _336  and  _339
REMARK  125  A    between atoms: _339  and  _340
REMARK  126  A    between atoms: _344  and  _345
REMARK  127  A    between atoms: _351  and  _352
REMARK  128  A    between atoms: _357  and  _359
REMARK  129  A    between atoms: _359  and  _360
REMARK  130  A    between atoms: _359  and  _362
REMARK  131  A    between atoms: _362  and  _363
REMARK  132  A    between atoms: _366  and  _368
REMARK  133  A    between atoms: _368  and  _369
REMARK  134  A    between atoms: _372  and  _374
REMARK  135  A    between atoms: _374  and  _375
REMARK  136  A    between atoms: _374  and  _377
REMARK  137  A    between atoms: _379  and  _381
REMARK  138  A    between atoms: _381  and  _382
REMARK  139  A    between atoms: _381  and  _384
REMARK  140  A    between atoms: _387  and  _389
REMARK  141  A    between atoms: _389  and  _390
REMARK  142  A    between atoms: _389  and  _392
REMARK  143  A    between atoms: _392  and  _393
REMARK  144  A    between atoms: _403  and  _405
REMARK  145  A    between atoms: _405  and  _406
REMARK  146  A    between atoms: _405  and  _408
REMARK  147  A    between atoms: _408  and  _409
REMARK  148  A    between atoms: _414  and  _416
REMARK  149  A    between atoms: _416  and  _417
REMARK  150  A    between atoms: _416  and  _419
REMARK  151  A    between atoms: _419  and  _420
REMARK  152  A    between atoms: _420  and  _421
REMARK  153  A    between atoms: _421  and  _422
REMARK                            x       y       z     vdW  Elec       q    Type
REMARK                         _______ _______ _______ _____ _____    ______ ____
ROOT
ATOM      1  CA  THR A   5       4.101   0.314  86.018  0.00  0.00    +0.176 C 
ENDROOT
BRANCH   1   2
ATOM      2  C   THR A   5       4.959   1.542  86.324  0.00  0.00    +0.246 C 
ATOM      3  O   THR A   5       4.504   2.471  86.988  0.00  0.00    -0.273 OA
ATOM      4  N   PRO A   6       6.207   1.551  85.843  0.00  0.00    -0.272 N 
ATOM      5  CA  PRO A   6       7.012   2.768  85.962  0.00  0.00    +0.152 C 
ATOM      6  CB  PRO A   6       8.228   2.463  85.090  0.00  0.00    +0.031 C 
ATOM      7  CG  PRO A   6       8.405   0.971  85.256  0.00  0.00    +0.024 C 
ATOM      8  CD  PRO A   6       6.979   0.429  85.276  0.00  0.00    +0.094 C 
BRANCH   5   9
ATOM      9  C   PRO A   6       6.222   3.975  85.458  0.00  0.00    +0.244 C 
ATOM     10  N   PRO A   7       6.298   5.105  86.173  0.00  0.00    -0.272 N 
ATOM     11  CA  PRO A   7       7.238   5.407  87.261  0.00  0.00    +0.152 C 
ATOM     12  CB  PRO A   7       7.311   6.933  87.217  0.00  0.00    +0.031 C 
ATOM     13  CG  PRO A   7       5.964   7.337  86.761  0.00  0.00    +0.024 C 
ATOM     14  CD  PRO A   7       5.541   6.299  85.759  0.00  0.00    +0.094 C 
ATOM     15  O   PRO A   6       5.541   3.880  84.425  0.00  0.00    -0.273 OA
BRANCH  11  16
ATOM     16  C   PRO A   7       6.852   4.950  88.677  0.00  0.00    +0.241 C 
ATOM     17  O   PRO A   7       7.507   5.393  89.623  0.00  0.00    -0.273 OA
ATOM     18  N   LEU A   8       5.826   4.112  88.819  0.00  0.00    -0.297 N 
ATOM     19  H   LEU A   8       5.239   3.892  87.989  0.00  0.00    +0.150 HD
BRANCH  18  20
ATOM     20  CA  LEU A   8       5.495   3.488  90.106  0.00  0.00    +0.149 C 
BRANCH  20  21
ATOM     21  C   LEU A   8       5.137   4.522  91.171  0.00  0.00    +0.241 C 
ATOM     22  O   LEU A   8       5.301   4.287  92.359  0.00  0.00    -0.273 OA
ATOM     23  N   ALA A   9       4.609   5.656  90.730  0.00  0.00    -0.298 N 
ATOM     24  H   ALA A   9       4.399   5.762  89.717  0.00  0.00    +0.150 HD
BRANCH  23  25
ATOM     25  CA  ALA A   9       4.318   6.756  91.641  0.00  0.00    +0.137 C 
ATOM     26  CB  ALA A   9       3.869   7.967  90.852  0.00  0.00    +0.030 C 
BRANCH  25  27
ATOM     27  C   ALA A   9       3.270   6.375  92.693  0.00  0.00    +0.227 C 
ATOM     28  O   ALA A   9       2.286   5.682  92.393  0.00  0.00    -0.286 OA
ENDBRANCH  25  27
ENDBRANCH  23  25
ENDBRANCH  20  21
BRANCH  20  29
ATOM     29  CB  LEU A   8       6.653   2.605  90.599  0.00  0.00    +0.029 C 
BRANCH  29  30
ATOM     30  CG  LEU A   8       7.045   1.487  89.617  0.00  0.00    +0.002 C 
ATOM     31  CD2 LEU A   8       8.325   0.803  90.086  0.00  0.00    +0.000 C 
ATOM     32  CD1 LEU A   8       5.921   0.475  89.480  0.00  0.00    +0.000 C 
ENDBRANCH  29  30
ENDBRANCH  20  29
ENDBRANCH  18  20
ENDBRANCH  11  16
ENDBRANCH   5   9
ENDBRANCH   1   2
BRANCH   1  35
ATOM     33  C   THR A   4       2.954  -0.900  87.828  0.00  0.00    +0.243 C 
ATOM     34  O   THR A   4       3.600  -1.932  87.656  0.00  0.00    -0.273 OA
ATOM     35  N   THR A   5       3.059   0.171  87.038  0.00  0.00    -0.295 N 
ATOM     36  H   THR A   5       2.368   0.940  87.152  0.00  0.00    +0.150 HD
BRANCH  33  37
ATOM     37  CA  THR A   4       1.962  -0.803  88.986  0.00  0.00    +0.176 C 
BRANCH  37  40
ATOM     38  C   LEU A   3       1.749   1.434  89.843  0.00  0.00    +0.241 C 
ATOM     39  O   LEU A   3       2.732   1.249  90.569  0.00  0.00    -0.273 OA
ATOM     40  N   THR A   4       1.278   0.489  89.034  0.00  0.00    -0.295 N 
ATOM     41  H   THR A   4       0.438   0.666  88.446  0.00  0.00    +0.150 HD
BRANCH  38  42
ATOM     42  CA  LEU A   3       1.061   2.792  89.815  0.00  0.00    +0.149 C 
BRANCH  42  45
ATOM     43  C   SER A   2       0.499   2.661  92.171  0.00  0.00    +0.243 C 
ATOM     44  O   SER A   2      -0.299   1.742  91.996  0.00  0.00    -0.273 OA
ATOM     45  N   LEU A   3       1.071   3.332  91.173  0.00  0.00    -0.297 N 
ATOM     46  H   LEU A   3       1.528   4.247  91.361  0.00  0.00    +0.150 HD
BRANCH  43  47
ATOM     47  CA  SER A   2       0.929   3.064  93.572  0.00  0.00    +0.178 C 
BRANCH  47  50
ATOM     48  C   GLY A   1      -0.267   3.105  95.687  0.00  0.00    +0.240 C 
ATOM     49  O   GLY A   1      -0.164   4.325  95.792  0.00  0.00    -0.274 OA
ATOM     50  N   SER A   2       0.123   2.434  94.611  0.00  0.00    -0.295 N 
ATOM     51  H   SER A   2      -0.152   1.437  94.506  0.00  0.00    +0.150 HD
BRANCH  48  52
ATOM     52  CA  GLY A   1      -0.869   2.275  96.801  0.00  0.00    +0.169 C 
BRANCH  52  53
ATOM     53  N   GLY A   1      -1.978   2.891  97.506  0.00  0.00    -0.236 NA
ATOM     54  H   GLY A   1      -2.611   3.549  97.008  0.00  0.00    +0.142 HD
ENDBRANCH  52  53
ENDBRANCH  48  52
ENDBRANCH  47  50
BRANCH  47  55
ATOM     55  CB  SER A   2       2.409   2.693  93.740  0.00  0.00    +0.166 C 
BRANCH  55  56
ATOM     56  OG  SER A   2       2.627   1.333  93.366  0.00  0.00    -0.380 OA
ATOM     57  H   SER A   2       2.368   1.207  92.419  0.00  0.00    +0.211 HD
ENDBRANCH  55  56
ENDBRANCH  47  55
ENDBRANCH  43  47
ENDBRANCH  42  45
BRANCH  42  58
ATOM     58  CB  LEU A   3       1.807   3.717  88.843  0.00  0.00    +0.029 C 
BRANCH  58  59
ATOM     59  CG  LEU A   3       1.488   5.213  88.836  0.00  0.00    +0.002 C 
ATOM     60  CD2 LEU A   3       0.020   5.447  88.659  0.00  0.00    +0.000 C 
ATOM     61  CD1 LEU A   3       2.283   5.886  87.717  0.00  0.00    +0.000 C 
ENDBRANCH  58  59
ENDBRANCH  42  58
ENDBRANCH  38  42
ENDBRANCH  37  40
BRANCH  37  62
ATOM     62  CB  THR A   4       0.983  -1.972  88.877  0.00  0.00    +0.137 C 
ATOM     63  CG2 THR A   4      -0.046  -1.928  90.001  0.00  0.00    +0.034 C 
BRANCH  62  64
ATOM     64  OG1 THR A   4       0.325  -1.905  87.611  0.00  0.00    -0.382 OA
ATOM     65  HG1 THR A   4      -0.312  -2.659  87.531  0.00  0.00    +0.210 HD
ENDBRANCH  62  64
ENDBRANCH  37  62
ENDBRANCH  33  37
ENDBRANCH   1  35
BRANCH   1  66
ATOM     66  CB  THR A   5       3.500   0.462  84.609  0.00  0.00    +0.137 C 
ATOM     67  CG2 THR A   5       2.880  -0.844  84.147  0.00  0.00    +0.034 C 
BRANCH  66  68
ATOM     68  OG1 THR A   5       2.490   1.480  84.635  0.00  0.00    -0.382 OA
ATOM     69  HG1 THR A   5       2.100   1.579  83.731  0.00  0.00    +0.210 HD
ENDBRANCH  66  68
ENDBRANCH   1  66
TORSDOF 26
REMARK  Name = ../refined-set-2016/4riv/4riv_pocket.pdb
REMARK  153 active torsions:
REMARK  status: ('A' for Active; 'I' for Inactive)
REMARK    1  A    between atoms: _1  and  _3
REMARK    2  A    between atoms: _3  and  _4
REMARK    3  A    between atoms: _3  and  _6
REMARK    4  A    between atoms: _6  and  _7
REMARK    5  A    between atoms: _17  and  _19
REMARK    6  A    between atoms: _19  and  _20
REMARK    7  A    between atoms: _19  and  _22
REMARK    8  A    between atoms: _22  and  _23
REMARK    9  A    between atoms: _28  and  _29
REMARK   10  A    between atoms: _31  and  _33
REMARK   11  A    between atoms: _33  and  _34
REMARK   12  A    between atoms: _33  and  _36
REMARK   13  A    between atoms: _36  and  _37
REMARK   14  A    between atoms: _47  and  _49
REMARK   15  A    between atoms: _49  and  _50
REMARK   16  A    between atoms: _49  and  _52
REMARK   17  A    between atoms: _52  and  _53
REMARK   18  A    between atoms: _56  and  _57
REMARK   19  A    between atoms: _62  and  _64
REMARK   20  A    between atoms: _64  and  _65
REMARK   21  A    between atoms: _64  and  _67
REMARK   22  A    between atoms: _67  and  _68
REMARK   23  A    between atoms: _73  and  _75
REMARK   24  A    between atoms: _75  and  _76
REMARK   25  A    between atoms: _75  and  _78
REMARK   26  A    between atoms: _78  and  _79
REMARK   27  A    between atoms: _84  and  _86
REMARK   28  A    between atoms: _86  and  _87
REMARK   29  A    between atoms: _86  and  _89
REMARK   30  A    between atoms: _89  and  _90
REMARK   31  A    between atoms: _92  and  _94
REMARK   32  A    between atoms: _94  and  _95
REMARK   33  A    between atoms: _94  and  _97
REMARK   34  A    between atoms: _97  and  _98
REMARK   35  A    between atoms: _98  and  _99
REMARK   36  A    between atoms: _104  and  _106
REMARK   37  A    between atoms: _106  and  _107
REMARK   38  A    between atoms: _106  and  _109
REMARK   39  A    between atoms: _109  and  _110
REMARK   40  A    between atoms: _113  and  _115
REMARK   41  A    between atoms: _115  and  _116
REMARK   42  A    between atoms: _115  and  _118
REMARK   43  A    between atoms: _118  and  _119
REMARK   44  A    between atoms: _119  and  _120
REMARK   45  A    between atoms: _125  and  _127
REMARK   46  A    between atoms: _127  and  _128
REMARK   47  A    between atoms: _127  and  _130
REMARK   48  A    between atoms: _130  and  _131
REMARK   49  A    between atoms: _137  and  _139
REMARK   50  A    between atoms: _150  and  _153
REMARK   51  A    between atoms: _153  and  _154
REMARK   52  A    between atoms: _162  and  _163
REMARK   53  A    between atoms: _171  and  _173
REMARK   54  A    between atoms: _173  and  _174
REMARK   55  A    between atoms: _173  and  _176
REMARK   56  A    between atoms: _176  and  _177
REMARK   57  A    between atoms: _177  and  _178
REMARK   58  A    between atoms: _181  and  _183
REMARK   59  A    between atoms: _183  and  _184
REMARK   60  A    between atoms: _183  and  _186
REMARK   61  A    between atoms: _186  and  _187
REMARK   62  A    between atoms: _192  and  _194
REMARK   63  A    between atoms: _194  and  _195
REMARK   64  A    between atoms: _194  and  _197
REMARK   65  A    between atoms: _197  and  _198
REMARK   66  A    between atoms: _198  and  _199
REMARK   67  A    between atoms: _202  and  _204
REMARK   68  A    between atoms: _204  and  _205
REMARK   69  A    between atoms: _204  and  _207
REMARK   70  A    between atoms: _207  and  _208
REMARK   71  A    between atoms: _211  and  _213
REMARK   72  A    between atoms: _213  and  _214
REMARK   73  A    between atoms: _213  and  _216
REMARK   74  A    between atoms: _216  and  _217
REMARK   75  A    between atoms: _218  and  ZN_431
REMARK   76  A    between atoms: _222  and  _224
REMARK   77  A    between atoms: _224  and  _225
REMARK   78  A    between atoms: _224  and  _227
REMARK   79  A    between atoms: _227  and  _228
REMARK   80  A    between atoms: _231  and  _233
REMARK   81  A    between atoms: _233  and  _234
REMARK   82  A    between atoms: _233  and  _236
REMARK   83  A    between atoms: _239  and  _241
REMARK   84  A    between atoms: _241  and  _242
REMARK   85  A    between atoms: _241  and  _244
REMARK   86  A    between atoms: _244  and  _245
REMARK   87  A    between atoms: _250  and  _252
REMARK   88  A    between atoms: _252  and  _253
REMARK   89  A    between atoms: _252  and  _255
REMARK   90  A    between atoms: _258  and  _260
REMARK   91  A    between atoms: _260  and  _261
REMARK   92  A    between atoms: _260  and  _263
REMARK   93  A    between atoms: _266  and  _268
REMARK   94  A    between atoms: _268  and  _269
REMARK   95  A    between atoms: _268  and  _271
REMARK   96  A    between atoms: _271  and  _272
REMARK   97  A    between atoms: _275  and  _277
REMARK   98  A    between atoms: _277  and  _278
REMARK   99  A    between atoms: _281  and  _283
REMARK  100  A    between atoms: _283  and  _284
REMARK  101  A    between atoms: _283  and  _286
REMARK  102  A    between atoms: _289  and  _291
REMARK  103  A    between atoms: _291  and  _292
REMARK  104  A    between atoms: _291  and  _294
REMARK  105  A    between atoms: _294  and  _295
REMARK  106  A    between atoms: _298  and  _300
REMARK  107  A    between atoms: _300  and  _301
REMARK  108  A    between atoms: _303  and  _305
REMARK  109  A    between atoms: _305  and  _306
REMARK  110  A    between atoms: _308  and  _310
REMARK  111  A    between atoms: _310  and  _311
REMARK  112  A    between atoms: _310  and  _313
REMARK  113  A    between atoms: _313  and  _314
REMARK  114  A    between atoms: _316  and  _318
REMARK  115  A    between atoms: _318  and  _319
REMARK  116  A    between atoms: _318  and  _321
REMARK  117  A    between atoms: _321  and  _322
REMARK  118  A    between atoms: _325  and  _327
REMARK  119  A    between atoms: _327  and  _328
REMARK  120  A    between atoms: _327  and  _330
REMARK  121  A    between atoms: _330  and  _331
REMARK  122  A    between atoms: _334  and  _336
REMARK  123  A    between atoms: _336  and  _337
REMARK  124  A    between atoms: _336  and  _339
REMARK  125  A    between atoms: _339  and  _340
REMARK  126  A    between atoms: _344  and  _345
REMARK  127  A    between atoms: _351  and  _352
REMARK  128  A    between atoms: _357  and  _359
REMARK  129  A    between atoms: _359  and  _360
REMARK  130  A    between atoms: _359  and  _362
REMARK  131  A    between atoms: _362  and  _363
REMARK  132  A    between atoms: _366  and  _368
REMARK  133  A    between atoms: _368  and  _369
REMARK  134  A    between atoms: _372  and  _374
REMARK  135  A    between atoms: _374  and  _375
REMARK  136  A    between atoms: _374  and  _377
REMARK  137  A    between atoms: _379  and  _381
REMARK  138  A    between atoms: _381  and  _382
REMARK  139  A    between atoms: _381  and  _384
REMARK  140  A    between atoms: _387  and  _389
REMARK  141  A    between atoms: _389  and  _390
REMARK  142  A    between atoms: _389  and  _392
REMARK  143  A    between atoms: _392  and  _393
REMARK  144  A    between atoms: _403  and  _405
REMARK  145  A    between atoms: _405  and  _406
REMARK  146  A    between atoms: _405  and  _408
REMARK  147  A    between atoms: _408  and  _409
REMARK  148  A    between atoms: _414  and  _416
REMARK  149  A    between atoms: _416  and  _417
REMARK  150  A    between atoms: _416  and  _419
REMARK  151  A    between atoms: _419  and  _420
REMARK  152  A    between atoms: _420  and  _421
REMARK  153  A    between atoms: _421  and  _422
REMARK                            x       y       z     vdW  Elec       q    Type
REMARK                         _______ _______ _______ _____ _____    ______ ____
ROOT
ATOM      1  C   CYS A   1      -1.868   7.789  93.934  0.00  0.00    +0.239 C 
ATOM      2  N   VAL A   2      -1.994   6.494  94.219  0.00  0.00    -0.298 N 
ATOM      3  H   VAL A   2      -1.209   5.991  94.680  0.00  0.00    +0.150 HD
ATOM      4  O   CYS A   1      -2.810   8.488  93.575  0.00  0.00    -0.274 OA
ENDROOT
BRANCH   1   5
ATOM      5  CA  CYS A   1      -0.481   8.393  94.060  0.00  0.00    +0.156 C 
BRANCH   5   6
ATOM      6  N   CYS A   1       0.568   7.396  94.221  0.00  0.00    -0.237 NA
ATOM      7  H   CYS A   1       0.617   6.608  93.544  0.00  0.00    +0.142 HD
ENDBRANCH   5   6
BRANCH   5   8
ATOM      8  CB  CYS A   1      -0.195   9.241  92.816  0.00  0.00    +0.095 C 
ATOM      9  SG  CYS A   1      -0.174   8.264  91.288  0.00  0.00    -0.080 S 
ENDBRANCH   5   8
ENDBRANCH   1   5
BRANCH   2  10
ATOM     10  CA  VAL A   2      -3.228   5.766  93.891  0.00  0.00    +0.137 C 
BRANCH  10  11
ATOM     11  CB  VAL A   2      -2.933   4.512  93.025  0.00  0.00    +0.026 C 
ATOM     12  CG2 VAL A   2      -4.246   3.804  92.667  0.00  0.00    +0.002 C 
ATOM     13  CG1 VAL A   2      -2.160   4.887  91.761  0.00  0.00    +0.002 C 
ENDBRANCH  10  11
BRANCH  10  14
ATOM     14  C   VAL A   2      -4.020   5.302  95.109  0.00  0.00    +0.227 C 
ATOM     15  O   VAL A   2      -3.475   4.641  96.001  0.00  0.00    -0.286 OA
ENDBRANCH  10  14
ENDBRANCH   2  10
TORSDOF 6
REMARK  Name = ../refined-set-2016/4riv/4riv_pocket.pdb
REMARK  153 active torsions:
REMARK  status: ('A' for Active; 'I' for Inactive)
REMARK    1  A    between atoms: _1  and  _3
REMARK    2  A    between atoms: _3  and  _4
REMARK    3  A    between atoms: _3  and  _6
REMARK    4  A    between atoms: _6  and  _7
REMARK    5  A    between atoms: _17  and  _19
REMARK    6  A    between atoms: _19  and  _20
REMARK    7  A    between atoms: _19  and  _22
REMARK    8  A    between atoms: _22  and  _23
REMARK    9  A    between atoms: _28  and  _29
REMARK   10  A    between atoms: _31  and  _33
REMARK   11  A    between atoms: _33  and  _34
REMARK   12  A    between atoms: _33  and  _36
REMARK   13  A    between atoms: _36  and  _37
REMARK   14  A    between atoms: _47  and  _49
REMARK   15  A    between atoms: _49  and  _50
REMARK   16  A    between atoms: _49  and  _52
REMARK   17  A    between atoms: _52  and  _53
REMARK   18  A    between atoms: _56  and  _57
REMARK   19  A    between atoms: _62  and  _64
REMARK   20  A    between atoms: _64  and  _65
REMARK   21  A    between atoms: _64  and  _67
REMARK   22  A    between atoms: _67  and  _68
REMARK   23  A    between atoms: _73  and  _75
REMARK   24  A    between atoms: _75  and  _76
REMARK   25  A    between atoms: _75  and  _78
REMARK   26  A    between atoms: _78  and  _79
REMARK   27  A    between atoms: _84  and  _86
REMARK   28  A    between atoms: _86  and  _87
REMARK   29  A    between atoms: _86  and  _89
REMARK   30  A    between atoms: _89  and  _90
REMARK   31  A    between atoms: _92  and  _94
REMARK   32  A    between atoms: _94  and  _95
REMARK   33  A    between atoms: _94  and  _97
REMARK   34  A    between atoms: _97  and  _98
REMARK   35  A    between atoms: _98  and  _99
REMARK   36  A    between atoms: _104  and  _106
REMARK   37  A    between atoms: _106  and  _107
REMARK   38  A    between atoms: _106  and  _109
REMARK   39  A    between atoms: _109  and  _110
REMARK   40  A    between atoms: _113  and  _115
REMARK   41  A    between atoms: _115  and  _116
REMARK   42  A    between atoms: _115  and  _118
REMARK   43  A    between atoms: _118  and  _119
REMARK   44  A    between atoms: _119  and  _120
REMARK   45  A    between atoms: _125  and  _127
REMARK   46  A    between atoms: _127  and  _128
REMARK   47  A    between atoms: _127  and  _130
REMARK   48  A    between atoms: _130  and  _131
REMARK   49  A    between atoms: _137  and  _139
REMARK   50  A    between atoms: _150  and  _153
REMARK   51  A    between atoms: _153  and  _154
REMARK   52  A    between atoms: _162  and  _163
REMARK   53  A    between atoms: _171  and  _173
REMARK   54  A    between atoms: _173  and  _174
REMARK   55  A    between atoms: _173  and  _176
REMARK   56  A    between atoms: _176  and  _177
REMARK   57  A    between atoms: _177  and  _178
REMARK   58  A    between atoms: _181  and  _183
REMARK   59  A    between atoms: _183  and  _184
REMARK   60  A    between atoms: _183  and  _186
REMARK   61  A    between atoms: _186  and  _187
REMARK   62  A    between atoms: _192  and  _194
REMARK   63  A    between atoms: _194  and  _195
REMARK   64  A    between atoms: _194  and  _197
REMARK   65  A    between atoms: _197  and  _198
REMARK   66  A    between atoms: _198  and  _199
REMARK   67  A    between atoms: _202  and  _204
REMARK   68  A    between atoms: _204  and  _205
REMARK   69  A    between atoms: _204  and  _207
REMARK   70  A    between atoms: _207  and  _208
REMARK   71  A    between atoms: _211  and  _213
REMARK   72  A    between atoms: _213  and  _214
REMARK   73  A    between atoms: _213  and  _216
REMARK   74  A    between atoms: _216  and  _217
REMARK   75  A    between atoms: _218  and  ZN_431
REMARK   76  A    between atoms: _222  and  _224
REMARK   77  A    between atoms: _224  and  _225
REMARK   78  A    between atoms: _224  and  _227
REMARK   79  A    between atoms: _227  and  _228
REMARK   80  A    between atoms: _231  and  _233
REMARK   81  A    between atoms: _233  and  _234
REMARK   82  A    between atoms: _233  and  _236
REMARK   83  A    between atoms: _239  and  _241
REMARK   84  A    between atoms: _241  and  _242
REMARK   85  A    between atoms: _241  and  _244
REMARK   86  A    between atoms: _244  and  _245
REMARK   87  A    between atoms: _250  and  _252
REMARK   88  A    between atoms: _252  and  _253
REMARK   89  A    between atoms: _252  and  _255
REMARK   90  A    between atoms: _258  and  _260
REMARK   91  A    between atoms: _260  and  _261
REMARK   92  A    between atoms: _260  and  _263
REMARK   93  A    between atoms: _266  and  _268
REMARK   94  A    between atoms: _268  and  _269
REMARK   95  A    between atoms: _268  and  _271
REMARK   96  A    between atoms: _271  and  _272
REMARK   97  A    between atoms: _275  and  _277
REMARK   98  A    between atoms: _277  and  _278
REMARK   99  A    between atoms: _281  and  _283
REMARK  100  A    between atoms: _283  and  _284
REMARK  101  A    between atoms: _283  and  _286
REMARK  102  A    between atoms: _289  and  _291
REMARK  103  A    between atoms: _291  and  _292
REMARK  104  A    between atoms: _291  and  _294
REMARK  105  A    between atoms: _294  and  _295
REMARK  106  A    between atoms: _298  and  _300
REMARK  107  A    between atoms: _300  and  _301
REMARK  108  A    between atoms: _303  and  _305
REMARK  109  A    between atoms: _305  and  _306
REMARK  110  A    between atoms: _308  and  _310
REMARK  111  A    between atoms: _310  and  _311
REMARK  112  A    between atoms: _310  and  _313
REMARK  113  A    between atoms: _313  and  _314
REMARK  114  A    between atoms: _316  and  _318
REMARK  115  A    between atoms: _318  and  _319
REMARK  116  A    between atoms: _318  and  _321
REMARK  117  A    between atoms: _321  and  _322
REMARK  118  A    between atoms: _325  and  _327
REMARK  119  A    between atoms: _327  and  _328
REMARK  120  A    between atoms: _327  and  _330
REMARK  121  A    between atoms: _330  and  _331
REMARK  122  A    between atoms: _334  and  _336
REMARK  123  A    between atoms: _336  and  _337
REMARK  124  A    between atoms: _336  and  _339
REMARK  125  A    between atoms: _339  and  _340
REMARK  126  A    between atoms: _344  and  _345
REMARK  127  A    between atoms: _351  and  _352
REMARK  128  A    between atoms: _357  and  _359
REMARK  129  A    between atoms: _359  and  _360
REMARK  130  A    between atoms: _359  and  _362
REMARK  131  A    between atoms: _362  and  _363
REMARK  132  A    between atoms: _366  and  _368
REMARK  133  A    between atoms: _368  and  _369
REMARK  134  A    between atoms: _372  and  _374
REMARK  135  A    between atoms: _374  and  _375
REMARK  136  A    between atoms: _374  and  _377
REMARK  137  A    between atoms: _379  and  _381
REMARK  138  A    between atoms: _381  and  _382
REMARK  139  A    between atoms: _381  and  _384
REMARK  140  A    between atoms: _387  and  _389
REMARK  141  A    between atoms: _389  and  _390
REMARK  142  A    between atoms: _389  and  _392
REMARK  143  A    between atoms: _392  and  _393
REMARK  144  A    between atoms: _403  and  _405
REMARK  145  A    between atoms: _405  and  _406
REMARK  146  A    between atoms: _405  and  _408
REMARK  147  A    between atoms: _408  and  _409
REMARK  148  A    between atoms: _414  and  _416
REMARK  149  A    between atoms: _416  and  _417
REMARK  150  A    between atoms: _416  and  _419
REMARK  151  A    between atoms: _419  and  _420
REMARK  152  A    between atoms: _420  and  _421
REMARK  153  A    between atoms: _421  and  _422
REMARK                            x       y       z     vdW  Elec       q    Type
REMARK                         _______ _______ _______ _____ _____    ______ ____
ROOT
ATOM      1  CG  TRP A   1      -4.784   0.308  94.175  0.00  0.00    -0.002 A 
ATOM      2  CD1 TRP A   1      -3.557   0.875  94.358  0.00  0.00    +0.068 A 
ATOM      3  NE1 TRP A   1      -2.829   0.813  93.191  0.00  0.00    -0.352 N 
ATOM      4  HE1 TRP A   1      -1.862   1.173  93.060  0.00  0.00    +0.166 HD
ATOM      5  CE2 TRP A   1      -3.588   0.199  92.231  0.00  0.00    +0.056 A 
ATOM      6  CZ2 TRP A   1      -3.286  -0.099  90.904  0.00  0.00    +0.017 A 
ATOM      7  CH2 TRP A   1      -4.245  -0.728  90.167  0.00  0.00    +0.001 A 
ATOM      8  CZ3 TRP A   1      -5.494  -1.068  90.722  0.00  0.00    +0.000 A 
ATOM      9  CE3 TRP A   1      -5.799  -0.770  92.032  0.00  0.00    +0.001 A 
ATOM     10  CD2 TRP A   1      -4.828  -0.130  92.814  0.00  0.00    +0.013 A 
ENDROOT
BRANCH   1  11
ATOM     11  CB  TRP A   1      -5.886   0.221  95.168  0.00  0.00    +0.053 C 
BRANCH  11  12
ATOM     12  CA  TRP A   1      -6.896   1.364  94.963  0.00  0.00    +0.137 C 
BRANCH  12  13
ATOM     13  N   TRP A   1      -6.440   2.575  95.635  0.00  0.00    -0.239 NA
ATOM     14  H   TRP A   1      -5.831   2.492  96.474  0.00  0.00    +0.142 HD
ENDBRANCH  12  13
BRANCH  12  15
ATOM     15  C   TRP A   1      -8.268   0.939  95.438  0.00  0.00    +0.224 C 
ATOM     16  O   TRP A   1      -8.540   0.908  96.632  0.00  0.00    -0.287 OA
ENDBRANCH  12  15
ENDBRANCH  11  12
ENDBRANCH   1  11
TORSDOF 4
REMARK  Name = ../refined-set-2016/4riv/4riv_pocket.pdb
REMARK  153 active torsions:
REMARK  status: ('A' for Active; 'I' for Inactive)
REMARK    1  A    between atoms: _1  and  _3
REMARK    2  A    between atoms: _3  and  _4
REMARK    3  A    between atoms: _3  and  _6
REMARK    4  A    between atoms: _6  and  _7
REMARK    5  A    between atoms: _17  and  _19
REMARK    6  A    between atoms: _19  and  _20
REMARK    7  A    between atoms: _19  and  _22
REMARK    8  A    between atoms: _22  and  _23
REMARK    9  A    between atoms: _28  and  _29
REMARK   10  A    between atoms: _31  and  _33
REMARK   11  A    between atoms: _33  and  _34
REMARK   12  A    between atoms: _33  and  _36
REMARK   13  A    between atoms: _36  and  _37
REMARK   14  A    between atoms: _47  and  _49
REMARK   15  A    between atoms: _49  and  _50
REMARK   16  A    between atoms: _49  and  _52
REMARK   17  A    between atoms: _52  and  _53
REMARK   18  A    between atoms: _56  and  _57
REMARK   19  A    between atoms: _62  and  _64
REMARK   20  A    between atoms: _64  and  _65
REMARK   21  A    between atoms: _64  and  _67
REMARK   22  A    between atoms: _67  and  _68
REMARK   23  A    between atoms: _73  and  _75
REMARK   24  A    between atoms: _75  and  _76
REMARK   25  A    between atoms: _75  and  _78
REMARK   26  A    between atoms: _78  and  _79
REMARK   27  A    between atoms: _84  and  _86
REMARK   28  A    between atoms: _86  and  _87
REMARK   29  A    between atoms: _86  and  _89
REMARK   30  A    between atoms: _89  and  _90
REMARK   31  A    between atoms: _92  and  _94
REMARK   32  A    between atoms: _94  and  _95
REMARK   33  A    between atoms: _94  and  _97
REMARK   34  A    between atoms: _97  and  _98
REMARK   35  A    between atoms: _98  and  _99
REMARK   36  A    between atoms: _104  and  _106
REMARK   37  A    between atoms: _106  and  _107
REMARK   38  A    between atoms: _106  and  _109
REMARK   39  A    between atoms: _109  and  _110
REMARK   40  A    between atoms: _113  and  _115
REMARK   41  A    between atoms: _115  and  _116
REMARK   42  A    between atoms: _115  and  _118
REMARK   43  A    between atoms: _118  and  _119
REMARK   44  A    between atoms: _119  and  _120
REMARK   45  A    between atoms: _125  and  _127
REMARK   46  A    between atoms: _127  and  _128
REMARK   47  A    between atoms: _127  and  _130
REMARK   48  A    between atoms: _130  and  _131
REMARK   49  A    between atoms: _137  and  _139
REMARK   50  A    between atoms: _150  and  _153
REMARK   51  A    between atoms: _153  and  _154
REMARK   52  A    between atoms: _162  and  _163
REMARK   53  A    between atoms: _171  and  _173
REMARK   54  A    between atoms: _173  and  _174
REMARK   55  A    between atoms: _173  and  _176
REMARK   56  A    between atoms: _176  and  _177
REMARK   57  A    between atoms: _177  and  _178
REMARK   58  A    between atoms: _181  and  _183
REMARK   59  A    between atoms: _183  and  _184
REMARK   60  A    between atoms: _183  and  _186
REMARK   61  A    between atoms: _186  and  _187
REMARK   62  A    between atoms: _192  and  _194
REMARK   63  A    between atoms: _194  and  _195
REMARK   64  A    between atoms: _194  and  _197
REMARK   65  A    between atoms: _197  and  _198
REMARK   66  A    between atoms: _198  and  _199
REMARK   67  A    between atoms: _202  and  _204
REMARK   68  A    between atoms: _204  and  _205
REMARK   69  A    between atoms: _204  and  _207
REMARK   70  A    between atoms: _207  and  _208
REMARK   71  A    between atoms: _211  and  _213
REMARK   72  A    between atoms: _213  and  _214
REMARK   73  A    between atoms: _213  and  _216
REMARK   74  A    between atoms: _216  and  _217
REMARK   75  A    between atoms: _218  and  ZN_431
REMARK   76  A    between atoms: _222  and  _224
REMARK   77  A    between atoms: _224  and  _225
REMARK   78  A    between atoms: _224  and  _227
REMARK   79  A    between atoms: _227  and  _228
REMARK   80  A    between atoms: _231  and  _233
REMARK   81  A    between atoms: _233  and  _234
REMARK   82  A    between atoms: _233  and  _236
REMARK   83  A    between atoms: _239  and  _241
REMARK   84  A    between atoms: _241  and  _242
REMARK   85  A    between atoms: _241  and  _244
REMARK   86  A    between atoms: _244  and  _245
REMARK   87  A    between atoms: _250  and  _252
REMARK   88  A    between atoms: _252  and  _253
REMARK   89  A    between atoms: _252  and  _255
REMARK   90  A    between atoms: _258  and  _260
REMARK   91  A    between atoms: _260  and  _261
REMARK   92  A    between atoms: _260  and  _263
REMARK   93  A    between atoms: _266  and  _268
REMARK   94  A    between atoms: _268  and  _269
REMARK   95  A    between atoms: _268  and  _271
REMARK   96  A    between atoms: _271  and  _272
REMARK   97  A    between atoms: _275  and  _277
REMARK   98  A    between atoms: _277  and  _278
REMARK   99  A    between atoms: _281  and  _283
REMARK  100  A    between atoms: _283  and  _284
REMARK  101  A    between atoms: _283  and  _286
REMARK  102  A    between atoms: _289  and  _291
REMARK  103  A    between atoms: _291  and  _292
REMARK  104  A    between atoms: _291  and  _294
REMARK  105  A    between atoms: _294  and  _295
REMARK  106  A    between atoms: _298  and  _300
REMARK  107  A    between atoms: _300  and  _301
REMARK  108  A    between atoms: _303  and  _305
REMARK  109  A    between atoms: _305  and  _306
REMARK  110  A    between atoms: _308  and  _310
REMARK  111  A    between atoms: _310  and  _311
REMARK  112  A    between atoms: _310  and  _313
REMARK  113  A    between atoms: _313  and  _314
REMARK  114  A    between atoms: _316  and  _318
REMARK  115  A    between atoms: _318  and  _319
REMARK  116  A    between atoms: _318  and  _321
REMARK  117  A    between atoms: _321  and  _322
REMARK  118  A    between atoms: _325  and  _327
REMARK  119  A    between atoms: _327  and  _328
REMARK  120  A    between atoms: _327  and  _330
REMARK  121  A    between atoms: _330  and  _331
REMARK  122  A    between atoms: _334  and  _336
REMARK  123  A    between atoms: _336  and  _337
REMARK  124  A    between atoms: _336  and  _339
REMARK  125  A    between atoms: _339  and  _340
REMARK  126  A    between atoms: _344  and  _345
REMARK  127  A    between atoms: _351  and  _352
REMARK  128  A    between atoms: _357  and  _359
REMARK  129  A    between atoms: _359  and  _360
REMARK  130  A    between atoms: _359  and  _362
REMARK  131  A    between atoms: _362  and  _363
REMARK  132  A    between atoms: _366  and  _368
REMARK  133  A    between atoms: _368  and  _369
REMARK  134  A    between atoms: _372  and  _374
REMARK  135  A    between atoms: _374  and  _375
REMARK  136  A    between atoms: _374  and  _377
REMARK  137  A    between atoms: _379  and  _381
REMARK  138  A    between atoms: _381  and  _382
REMARK  139  A    between atoms: _381  and  _384
REMARK  140  A    between atoms: _387  and  _389
REMARK  141  A    between atoms: _389  and  _390
REMARK  142  A    between atoms: _389  and  _392
REMARK  143  A    between atoms: _392  and  _393
REMARK  144  A    between atoms: _403  and  _405
REMARK  145  A    between atoms: _405  and  _406
REMARK  146  A    between atoms: _405  and  _408
REMARK  147  A    between atoms: _408  and  _409
REMARK  148  A    between atoms: _414  and  _416
REMARK  149  A    between atoms: _416  and  _417
REMARK  150  A    between atoms: _416  and  _419
REMARK  151  A    between atoms: _419  and  _420
REMARK  152  A    between atoms: _420  and  _421
REMARK  153  A    between atoms: _421  and  _422
REMARK                            x       y       z     vdW  Elec       q    Type
REMARK                         _______ _______ _______ _____ _____    ______ ____
ROOT
ATOM      1  CB  ASN A   1       2.061  -7.212  80.448  0.00  0.00    +0.110 C 
ENDROOT
BRANCH   1   2
ATOM      2  CG  ASN A   1       0.569  -7.374  80.220  0.00  0.00    +0.221 C 
ATOM      3  OD1 ASN A   1      -0.068  -8.276  80.767  0.00  0.00    -0.275 OA
ATOM      4  ND2 ASN A   1      -0.003  -6.476  79.416  0.00  0.00    -0.329 N 
ATOM      5 HD21 ASN A   1      -1.025  -6.521  79.230  0.00  0.00    +0.145 HD
ATOM      6 HD22 ASN A   1       0.573  -5.731  78.975  0.00  0.00    +0.145 HD
ENDBRANCH   1   2
BRANCH   1   7
ATOM      7  CA  ASN A   1       2.586  -8.075  81.597  0.00  0.00    +0.142 C 
BRANCH   7   8
ATOM      8  N   ASN A   1       2.288  -9.481  81.349  0.00  0.00    -0.239 NA
ATOM      9  H   ASN A   1       1.392  -9.731  80.884  0.00  0.00    +0.142 HD
ENDBRANCH   7   8
BRANCH   7  10
ATOM     10  C   ASN A   1       2.014  -7.612  82.942  0.00  0.00    +0.225 C 
ATOM     11  O   ASN A   1       1.328  -6.576  83.038  0.00  0.00    -0.287 OA
ENDBRANCH   7  10
ENDBRANCH   1   7
TORSDOF 4
REMARK  Name = ../refined-set-2016/4riv/4riv_pocket.pdb
REMARK  153 active torsions:
REMARK  status: ('A' for Active; 'I' for Inactive)
REMARK    1  A    between atoms: _1  and  _3
REMARK    2  A    between atoms: _3  and  _4
REMARK    3  A    between atoms: _3  and  _6
REMARK    4  A    between atoms: _6  and  _7
REMARK    5  A    between atoms: _17  and  _19
REMARK    6  A    between atoms: _19  and  _20
REMARK    7  A    between atoms: _19  and  _22
REMARK    8  A    between atoms: _22  and  _23
REMARK    9  A    between atoms: _28  and  _29
REMARK   10  A    between atoms: _31  and  _33
REMARK   11  A    between atoms: _33  and  _34
REMARK   12  A    between atoms: _33  and  _36
REMARK   13  A    between atoms: _36  and  _37
REMARK   14  A    between atoms: _47  and  _49
REMARK   15  A    between atoms: _49  and  _50
REMARK   16  A    between atoms: _49  and  _52
REMARK   17  A    between atoms: _52  and  _53
REMARK   18  A    between atoms: _56  and  _57
REMARK   19  A    between atoms: _62  and  _64
REMARK   20  A    between atoms: _64  and  _65
REMARK   21  A    between atoms: _64  and  _67
REMARK   22  A    between atoms: _67  and  _68
REMARK   23  A    between atoms: _73  and  _75
REMARK   24  A    between atoms: _75  and  _76
REMARK   25  A    between atoms: _75  and  _78
REMARK   26  A    between atoms: _78  and  _79
REMARK   27  A    between atoms: _84  and  _86
REMARK   28  A    between atoms: _86  and  _87
REMARK   29  A    between atoms: _86  and  _89
REMARK   30  A    between atoms: _89  and  _90
REMARK   31  A    between atoms: _92  and  _94
REMARK   32  A    between atoms: _94  and  _95
REMARK   33  A    between atoms: _94  and  _97
REMARK   34  A    between atoms: _97  and  _98
REMARK   35  A    between atoms: _98  and  _99
REMARK   36  A    between atoms: _104  and  _106
REMARK   37  A    between atoms: _106  and  _107
REMARK   38  A    between atoms: _106  and  _109
REMARK   39  A    between atoms: _109  and  _110
REMARK   40  A    between atoms: _113  and  _115
REMARK   41  A    between atoms: _115  and  _116
REMARK   42  A    between atoms: _115  and  _118
REMARK   43  A    between atoms: _118  and  _119
REMARK   44  A    between atoms: _119  and  _120
REMARK   45  A    between atoms: _125  and  _127
REMARK   46  A    between atoms: _127  and  _128
REMARK   47  A    between atoms: _127  and  _130
REMARK   48  A    between atoms: _130  and  _131
REMARK   49  A    between atoms: _137  and  _139
REMARK   50  A    between atoms: _150  and  _153
REMARK   51  A    between atoms: _153  and  _154
REMARK   52  A    between atoms: _162  and  _163
REMARK   53  A    between atoms: _171  and  _173
REMARK   54  A    between atoms: _173  and  _174
REMARK   55  A    between atoms: _173  and  _176
REMARK   56  A    between atoms: _176  and  _177
REMARK   57  A    between atoms: _177  and  _178
REMARK   58  A    between atoms: _181  and  _183
REMARK   59  A    between atoms: _183  and  _184
REMARK   60  A    between atoms: _183  and  _186
REMARK   61  A    between atoms: _186  and  _187
REMARK   62  A    between atoms: _192  and  _194
REMARK   63  A    between atoms: _194  and  _195
REMARK   64  A    between atoms: _194  and  _197
REMARK   65  A    between atoms: _197  and  _198
REMARK   66  A    between atoms: _198  and  _199
REMARK   67  A    between atoms: _202  and  _204
REMARK   68  A    between atoms: _204  and  _205
REMARK   69  A    between atoms: _204  and  _207
REMARK   70  A    between atoms: _207  and  _208
REMARK   71  A    between atoms: _211  and  _213
REMARK   72  A    between atoms: _213  and  _214
REMARK   73  A    between atoms: _213  and  _216
REMARK   74  A    between atoms: _216  and  _217
REMARK   75  A    between atoms: _218  and  ZN_431
REMARK   76  A    between atoms: _222  and  _224
REMARK   77  A    between atoms: _224  and  _225
REMARK   78  A    between atoms: _224  and  _227
REMARK   79  A    between atoms: _227  and  _228
REMARK   80  A    between atoms: _231  and  _233
REMARK   81  A    between atoms: _233  and  _234
REMARK   82  A    between atoms: _233  and  _236
REMARK   83  A    between atoms: _239  and  _241
REMARK   84  A    between atoms: _241  and  _242
REMARK   85  A    between atoms: _241  and  _244
REMARK   86  A    between atoms: _244  and  _245
REMARK   87  A    between atoms: _250  and  _252
REMARK   88  A    between atoms: _252  and  _253
REMARK   89  A    between atoms: _252  and  _255
REMARK   90  A    between atoms: _258  and  _260
REMARK   91  A    between atoms: _260  and  _261
REMARK   92  A    between atoms: _260  and  _263
REMARK   93  A    between atoms: _266  and  _268
REMARK   94  A    between atoms: _268  and  _269
REMARK   95  A    between atoms: _268  and  _271
REMARK   96  A    between atoms: _271  and  _272
REMARK   97  A    between atoms: _275  and  _277
REMARK   98  A    between atoms: _277  and  _278
REMARK   99  A    between atoms: _281  and  _283
REMARK  100  A    between atoms: _283  and  _284
REMARK  101  A    between atoms: _283  and  _286
REMARK  102  A    between atoms: _289  and  _291
REMARK  103  A    between atoms: _291  and  _292
REMARK  104  A    between atoms: _291  and  _294
REMARK  105  A    between atoms: _294  and  _295
REMARK  106  A    between atoms: _298  and  _300
REMARK  107  A    between atoms: _300  and  _301
REMARK  108  A    between atoms: _303  and  _305
REMARK  109  A    between atoms: _305  and  _306
REMARK  110  A    between atoms: _308  and  _310
REMARK  111  A    between atoms: _310  and  _311
REMARK  112  A    between atoms: _310  and  _313
REMARK  113  A    between atoms: _313  and  _314
REMARK  114  A    between atoms: _316  and  _318
REMARK  115  A    between atoms: _318  and  _319
REMARK  116  A    between atoms: _318  and  _321
REMARK  117  A    between atoms: _321  and  _322
REMARK  118  A    between atoms: _325  and  _327
REMARK  119  A    between atoms: _327  and  _328
REMARK  120  A    between atoms: _327  and  _330
REMARK  121  A    between atoms: _330  and  _331
REMARK  122  A    between atoms: _334  and  _336
REMARK  123  A    between atoms: _336  and  _337
REMARK  124  A    between atoms: _336  and  _339
REMARK  125  A    between atoms: _339  and  _340
REMARK  126  A    between atoms: _344  and  _345
REMARK  127  A    between atoms: _351  and  _352
REMARK  128  A    between atoms: _357  and  _359
REMARK  129  A    between atoms: _359  and  _360
REMARK  130  A    between atoms: _359  and  _362
REMARK  131  A    between atoms: _362  and  _363
REMARK  132  A    between atoms: _366  and  _368
REMARK  133  A    between atoms: _368  and  _369
REMARK  134  A    between atoms: _372  and  _374
REMARK  135  A    between atoms: _374  and  _375
REMARK  136  A    between atoms: _374  and  _377
REMARK  137  A    between atoms: _379  and  _381
REMARK  138  A    between atoms: _381  and  _382
REMARK  139  A    between atoms: _381  and  _384
REMARK  140  A    between atoms: _387  and  _389
REMARK  141  A    between atoms: _389  and  _390
REMARK  142  A    between atoms: _389  and  _392
REMARK  143  A    between atoms: _392  and  _393
REMARK  144  A    between atoms: _403  and  _405
REMARK  145  A    between atoms: _405  and  _406
REMARK  146  A    between atoms: _405  and  _408
REMARK  147  A    between atoms: _408  and  _409
REMARK  148  A    between atoms: _414  and  _416
REMARK  149  A    between atoms: _416  and  _417
REMARK  150  A    between atoms: _416  and  _419
REMARK  151  A    between atoms: _419  and  _420
REMARK  152  A    between atoms: _420  and  _421
REMARK  153  A    between atoms: _421  and  _422
REMARK                            x       y       z     vdW  Elec       q    Type
REMARK                         _______ _______ _______ _____ _____    ______ ____
ROOT
ATOM      1  NE  ARG A   1       6.219  -3.553  91.151  0.00  0.00    +0.330 N 
ATOM      2  CZ  ARG A   1       6.396  -2.537  91.992  0.00  0.00    +0.000 C 
ATOM      3  NH2 ARG A   1       7.602  -2.315  92.497  0.00  0.00    +0.330 N 
ATOM      4 HH21 ARG A   1       7.753  -1.524  93.155  0.00  0.00    +0.000 HD
ATOM      5 HH22 ARG A   1       8.397  -2.932  92.235  0.00  0.00    +0.000 HD
ATOM      6  NH1 ARG A   1       5.385  -1.751  92.345  0.00  0.00    +0.330 N 
ATOM      7 HH11 ARG A   1       5.545  -0.962  93.004  0.00  0.00    +0.000 HD
ATOM      8 HH12 ARG A   1       4.433  -1.924  91.963  0.00  0.00    +0.000 HD
ATOM      9  HE  ARG A   1       7.046  -4.145  90.933  0.00  0.00    +0.000 HD
ENDROOT
BRANCH   1  10
ATOM     10  CD  ARG A   1       4.948  -3.904  90.507  0.00  0.00    +0.000 C 
BRANCH  10  11
ATOM     11  CG  ARG A   1       5.020  -5.292  89.887  0.00  0.00    +0.000 C 
BRANCH  11  12
ATOM     12  CB  ARG A   1       3.959  -5.502  88.818  0.00  0.00    +0.000 C 
BRANCH  12  13
ATOM     13  CA  ARG A   1       3.845  -6.953  88.351  0.00  0.00    +0.000 C 
BRANCH  13  14
ATOM     14  N   ARG A   1       2.915  -7.065  87.232  0.00  0.00    +0.000 NA
ATOM     15  H   ARG A   1       2.128  -6.389  87.165  0.00  0.00    +0.000 HD
ENDBRANCH  13  14
BRANCH  13  16
ATOM     16  C   ARG A   1       3.351  -7.839  89.492  0.00  0.00    +0.000 C 
ATOM     17  O   ARG A   1       2.159  -7.862  89.790  0.00  0.00    +0.000 OA
ENDBRANCH  13  16
ENDBRANCH  12  13
ENDBRANCH  11  12
ENDBRANCH  10  11
ENDBRANCH   1  10
TORSDOF 6
REMARK  Name = ../refined-set-2016/4riv/4riv_pocket.pdb
REMARK  153 active torsions:
REMARK  status: ('A' for Active; 'I' for Inactive)
REMARK    1  A    between atoms: _1  and  _3
REMARK    2  A    between atoms: _3  and  _4
REMARK    3  A    between atoms: _3  and  _6
REMARK    4  A    between atoms: _6  and  _7
REMARK    5  A    between atoms: _17  and  _19
REMARK    6  A    between atoms: _19  and  _20
REMARK    7  A    between atoms: _19  and  _22
REMARK    8  A    between atoms: _22  and  _23
REMARK    9  A    between atoms: _28  and  _29
REMARK   10  A    between atoms: _31  and  _33
REMARK   11  A    between atoms: _33  and  _34
REMARK   12  A    between atoms: _33  and  _36
REMARK   13  A    between atoms: _36  and  _37
REMARK   14  A    between atoms: _47  and  _49
REMARK   15  A    between atoms: _49  and  _50
REMARK   16  A    between atoms: _49  and  _52
REMARK   17  A    between atoms: _52  and  _53
REMARK   18  A    between atoms: _56  and  _57
REMARK   19  A    between atoms: _62  and  _64
REMARK   20  A    between atoms: _64  and  _65
REMARK   21  A    between atoms: _64  and  _67
REMARK   22  A    between atoms: _67  and  _68
REMARK   23  A    between atoms: _73  and  _75
REMARK   24  A    between atoms: _75  and  _76
REMARK   25  A    between atoms: _75  and  _78
REMARK   26  A    between atoms: _78  and  _79
REMARK   27  A    between atoms: _84  and  _86
REMARK   28  A    between atoms: _86  and  _87
REMARK   29  A    between atoms: _86  and  _89
REMARK   30  A    between atoms: _89  and  _90
REMARK   31  A    between atoms: _92  and  _94
REMARK   32  A    between atoms: _94  and  _95
REMARK   33  A    between atoms: _94  and  _97
REMARK   34  A    between atoms: _97  and  _98
REMARK   35  A    between atoms: _98  and  _99
REMARK   36  A    between atoms: _104  and  _106
REMARK   37  A    between atoms: _106  and  _107
REMARK   38  A    between atoms: _106  and  _109
REMARK   39  A    between atoms: _109  and  _110
REMARK   40  A    between atoms: _113  and  _115
REMARK   41  A    between atoms: _115  and  _116
REMARK   42  A    between atoms: _115  and  _118
REMARK   43  A    between atoms: _118  and  _119
REMARK   44  A    between atoms: _119  and  _120
REMARK   45  A    between atoms: _125  and  _127
REMARK   46  A    between atoms: _127  and  _128
REMARK   47  A    between atoms: _127  and  _130
REMARK   48  A    between atoms: _130  and  _131
REMARK   49  A    between atoms: _137  and  _139
REMARK   50  A    between atoms: _150  and  _153
REMARK   51  A    between atoms: _153  and  _154
REMARK   52  A    between atoms: _162  and  _163
REMARK   53  A    between atoms: _171  and  _173
REMARK   54  A    between atoms: _173  and  _174
REMARK   55  A    between atoms: _173  and  _176
REMARK   56  A    between atoms: _176  and  _177
REMARK   57  A    between atoms: _177  and  _178
REMARK   58  A    between atoms: _181  and  _183
REMARK   59  A    between atoms: _183  and  _184
REMARK   60  A    between atoms: _183  and  _186
REMARK   61  A    between atoms: _186  and  _187
REMARK   62  A    between atoms: _192  and  _194
REMARK   63  A    between atoms: _194  and  _195
REMARK   64  A    between atoms: _194  and  _197
REMARK   65  A    between atoms: _197  and  _198
REMARK   66  A    between atoms: _198  and  _199
REMARK   67  A    between atoms: _202  and  _204
REMARK   68  A    between atoms: _204  and  _205
REMARK   69  A    between atoms: _204  and  _207
REMARK   70  A    between atoms: _207  and  _208
REMARK   71  A    between atoms: _211  and  _213
REMARK   72  A    between atoms: _213  and  _214
REMARK   73  A    between atoms: _213  and  _216
REMARK   74  A    between atoms: _216  and  _217
REMARK   75  A    between atoms: _218  and  ZN_431
REMARK   76  A    between atoms: _222  and  _224
REMARK   77  A    between atoms: _224  and  _225
REMARK   78  A    between atoms: _224  and  _227
REMARK   79  A    between atoms: _227  and  _228
REMARK   80  A    between atoms: _231  and  _233
REMARK   81  A    between atoms: _233  and  _234
REMARK   82  A    between atoms: _233  and  _236
REMARK   83  A    between atoms: _239  and  _241
REMARK   84  A    between atoms: _241  and  _242
REMARK   85  A    between atoms: _241  and  _244
REMARK   86  A    between atoms: _244  and  _245
REMARK   87  A    between atoms: _250  and  _252
REMARK   88  A    between atoms: _252  and  _253
REMARK   89  A    between atoms: _252  and  _255
REMARK   90  A    between atoms: _258  and  _260
REMARK   91  A    between atoms: _260  and  _261
REMARK   92  A    between atoms: _260  and  _263
REMARK   93  A    between atoms: _266  and  _268
REMARK   94  A    between atoms: _268  and  _269
REMARK   95  A    between atoms: _268  and  _271
REMARK   96  A    between atoms: _271  and  _272
REMARK   97  A    between atoms: _275  and  _277
REMARK   98  A    between atoms: _277  and  _278
REMARK   99  A    between atoms: _281  and  _283
REMARK  100  A    between atoms: _283  and  _284
REMARK  101  A    between atoms: _283  and  _286
REMARK  102  A    between atoms: _289  and  _291
REMARK  103  A    between atoms: _291  and  _292
REMARK  104  A    between atoms: _291  and  _294
REMARK  105  A    between atoms: _294  and  _295
REMARK  106  A    between atoms: _298  and  _300
REMARK  107  A    between atoms: _300  and  _301
REMARK  108  A    between atoms: _303  and  _305
REMARK  109  A    between atoms: _305  and  _306
REMARK  110  A    between atoms: _308  and  _310
REMARK  111  A    between atoms: _310  and  _311
REMARK  112  A    between atoms: _310  and  _313
REMARK  113  A    between atoms: _313  and  _314
REMARK  114  A    between atoms: _316  and  _318
REMARK  115  A    between atoms: _318  and  _319
REMARK  116  A    between atoms: _318  and  _321
REMARK  117  A    between atoms: _321  and  _322
REMARK  118  A    between atoms: _325  and  _327
REMARK  119  A    between atoms: _327  and  _328
REMARK  120  A    between atoms: _327  and  _330
REMARK  121  A    between atoms: _330  and  _331
REMARK  122  A    between atoms: _334  and  _336
REMARK  123  A    between atoms: _336  and  _337
REMARK  124  A    between atoms: _336  and  _339
REMARK  125  A    between atoms: _339  and  _340
REMARK  126  A    between atoms: _344  and  _345
REMARK  127  A    between atoms: _351  and  _352
REMARK  128  A    between atoms: _357  and  _359
REMARK  129  A    between atoms: _359  and  _360
REMARK  130  A    between atoms: _359  and  _362
REMARK  131  A    between atoms: _362  and  _363
REMARK  132  A    between atoms: _366  and  _368
REMARK  133  A    between atoms: _368  and  _369
REMARK  134  A    between atoms: _372  and  _374
REMARK  135  A    between atoms: _374  and  _375
REMARK  136  A    between atoms: _374  and  _377
REMARK  137  A    between atoms: _379  and  _381
REMARK  138  A    between atoms: _381  and  _382
REMARK  139  A    between atoms: _381  and  _384
REMARK  140  A    between atoms: _387  and  _389
REMARK  141  A    between atoms: _389  and  _390
REMARK  142  A    between atoms: _389  and  _392
REMARK  143  A    between atoms: _392  and  _393
REMARK  144  A    between atoms: _403  and  _405
REMARK  145  A    between atoms: _405  and  _406
REMARK  146  A    between atoms: _405  and  _408
REMARK  147  A    between atoms: _408  and  _409
REMARK  148  A    between atoms: _414  and  _416
REMARK  149  A    between atoms: _416  and  _417
REMARK  150  A    between atoms: _416  and  _419
REMARK  151  A    between atoms: _419  and  _420
REMARK  152  A    between atoms: _420  and  _421
REMARK  153  A    between atoms: _421  and  _422
REMARK                            x       y       z     vdW  Elec       q    Type
REMARK                         _______ _______ _______ _____ _____    ______ ____
ROOT
ATOM      1  O   HOH     1       2.766  -3.884  85.780  0.00  0.00    +0.000 OA
ENDROOT
TORSDOF 0
REMARK  Name = ../refined-set-2016/4riv/4riv_pocket.pdb
REMARK  153 active torsions:
REMARK  status: ('A' for Active; 'I' for Inactive)
REMARK    1  A    between atoms: _1  and  _3
REMARK    2  A    between atoms: _3  and  _4
REMARK    3  A    between atoms: _3  and  _6
REMARK    4  A    between atoms: _6  and  _7
REMARK    5  A    between atoms: _17  and  _19
REMARK    6  A    between atoms: _19  and  _20
REMARK    7  A    between atoms: _19  and  _22
REMARK    8  A    between atoms: _22  and  _23
REMARK    9  A    between atoms: _28  and  _29
REMARK   10  A    between atoms: _31  and  _33
REMARK   11  A    between atoms: _33  and  _34
REMARK   12  A    between atoms: _33  and  _36
REMARK   13  A    between atoms: _36  and  _37
REMARK   14  A    between atoms: _47  and  _49
REMARK   15  A    between atoms: _49  and  _50
REMARK   16  A    between atoms: _49  and  _52
REMARK   17  A    between atoms: _52  and  _53
REMARK   18  A    between atoms: _56  and  _57
REMARK   19  A    between atoms: _62  and  _64
REMARK   20  A    between atoms: _64  and  _65
REMARK   21  A    between atoms: _64  and  _67
REMARK   22  A    between atoms: _67  and  _68
REMARK   23  A    between atoms: _73  and  _75
REMARK   24  A    between atoms: _75  and  _76
REMARK   25  A    between atoms: _75  and  _78
REMARK   26  A    between atoms: _78  and  _79
REMARK   27  A    between atoms: _84  and  _86
REMARK   28  A    between atoms: _86  and  _87
REMARK   29  A    between atoms: _86  and  _89
REMARK   30  A    between atoms: _89  and  _90
REMARK   31  A    between atoms: _92  and  _94
REMARK   32  A    between atoms: _94  and  _95
REMARK   33  A    between atoms: _94  and  _97
REMARK   34  A    between atoms: _97  and  _98
REMARK   35  A    between atoms: _98  and  _99
REMARK   36  A    between atoms: _104  and  _106
REMARK   37  A    between atoms: _106  and  _107
REMARK   38  A    between atoms: _106  and  _109
REMARK   39  A    between atoms: _109  and  _110
REMARK   40  A    between atoms: _113  and  _115
REMARK   41  A    between atoms: _115  and  _116
REMARK   42  A    between atoms: _115  and  _118
REMARK   43  A    between atoms: _118  and  _119
REMARK   44  A    between atoms: _119  and  _120
REMARK   45  A    between atoms: _125  and  _127
REMARK   46  A    between atoms: _127  and  _128
REMARK   47  A    between atoms: _127  and  _130
REMARK   48  A    between atoms: _130  and  _131
REMARK   49  A    between atoms: _137  and  _139
REMARK   50  A    between atoms: _150  and  _153
REMARK   51  A    between atoms: _153  and  _154
REMARK   52  A    between atoms: _162  and  _163
REMARK   53  A    between atoms: _171  and  _173
REMARK   54  A    between atoms: _173  and  _174
REMARK   55  A    between atoms: _173  and  _176
REMARK   56  A    between atoms: _176  and  _177
REMARK   57  A    between atoms: _177  and  _178
REMARK   58  A    between atoms: _181  and  _183
REMARK   59  A    between atoms: _183  and  _184
REMARK   60  A    between atoms: _183  and  _186
REMARK   61  A    between atoms: _186  and  _187
REMARK   62  A    between atoms: _192  and  _194
REMARK   63  A    between atoms: _194  and  _195
REMARK   64  A    between atoms: _194  and  _197
REMARK   65  A    between atoms: _197  and  _198
REMARK   66  A    between atoms: _198  and  _199
REMARK   67  A    between atoms: _202  and  _204
REMARK   68  A    between atoms: _204  and  _205
REMARK   69  A    between atoms: _204  and  _207
REMARK   70  A    between atoms: _207  and  _208
REMARK   71  A    between atoms: _211  and  _213
REMARK   72  A    between atoms: _213  and  _214
REMARK   73  A    between atoms: _213  and  _216
REMARK   74  A    between atoms: _216  and  _217
REMARK   75  A    between atoms: _218  and  ZN_431
REMARK   76  A    between atoms: _222  and  _224
REMARK   77  A    between atoms: _224  and  _225
REMARK   78  A    between atoms: _224  and  _227
REMARK   79  A    between atoms: _227  and  _228
REMARK   80  A    between atoms: _231  and  _233
REMARK   81  A    between atoms: _233  and  _234
REMARK   82  A    between atoms: _233  and  _236
REMARK   83  A    between atoms: _239  and  _241
REMARK   84  A    between atoms: _241  and  _242
REMARK   85  A    between atoms: _241  and  _244
REMARK   86  A    between atoms: _244  and  _245
REMARK   87  A    between atoms: _250  and  _252
REMARK   88  A    between atoms: _252  and  _253
REMARK   89  A    between atoms: _252  and  _255
REMARK   90  A    between atoms: _258  and  _260
REMARK   91  A    between atoms: _260  and  _261
REMARK   92  A    between atoms: _260  and  _263
REMARK   93  A    between atoms: _266  and  _268
REMARK   94  A    between atoms: _268  and  _269
REMARK   95  A    between atoms: _268  and  _271
REMARK   96  A    between atoms: _271  and  _272
REMARK   97  A    between atoms: _275  and  _277
REMARK   98  A    between atoms: _277  and  _278
REMARK   99  A    between atoms: _281  and  _283
REMARK  100  A    between atoms: _283  and  _284
REMARK  101  A    between atoms: _283  and  _286
REMARK  102  A    between atoms: _289  and  _291
REMARK  103  A    between atoms: _291  and  _292
REMARK  104  A    between atoms: _291  and  _294
REMARK  105  A    between atoms: _294  and  _295
REMARK  106  A    between atoms: _298  and  _300
REMARK  107  A    between atoms: _300  and  _301
REMARK  108  A    between atoms: _303  and  _305
REMARK  109  A    between atoms: _305  and  _306
REMARK  110  A    between atoms: _308  and  _310
REMARK  111  A    between atoms: _310  and  _311
REMARK  112  A    between atoms: _310  and  _313
REMARK  113  A    between atoms: _313  and  _314
REMARK  114  A    between atoms: _316  and  _318
REMARK  115  A    between atoms: _318  and  _319
REMARK  116  A    between atoms: _318  and  _321
REMARK  117  A    between atoms: _321  and  _322
REMARK  118  A    between atoms: _325  and  _327
REMARK  119  A    between atoms: _327  and  _328
REMARK  120  A    between atoms: _327  and  _330
REMARK  121  A    between atoms: _330  and  _331
REMARK  122  A    between atoms: _334  and  _336
REMARK  123  A    between atoms: _336  and  _337
REMARK  124  A    between atoms: _336  and  _339
REMARK  125  A    between atoms: _339  and  _340
REMARK  126  A    between atoms: _344  and  _345
REMARK  127  A    between atoms: _351  and  _352
REMARK  128  A    between atoms: _357  and  _359
REMARK  129  A    between atoms: _359  and  _360
REMARK  130  A    between atoms: _359  and  _362
REMARK  131  A    between atoms: _362  and  _363
REMARK  132  A    between atoms: _366  and  _368
REMARK  133  A    between atoms: _368  and  _369
REMARK  134  A    between atoms: _372  and  _374
REMARK  135  A    between atoms: _374  and  _375
REMARK  136  A    between atoms: _374  and  _377
REMARK  137  A    between atoms: _379  and  _381
REMARK  138  A    between atoms: _381  and  _382
REMARK  139  A    between atoms: _381  and  _384
REMARK  140  A    between atoms: _387  and  _389
REMARK  141  A    between atoms: _389  and  _390
REMARK  142  A    between atoms: _389  and  _392
REMARK  143  A    between atoms: _392  and  _393
REMARK  144  A    between atoms: _403  and  _405
REMARK  145  A    between atoms: _405  and  _406
REMARK  146  A    between atoms: _405  and  _408
REMARK  147  A    between atoms: _408  and  _409
REMARK  148  A    between atoms: _414  and  _416
REMARK  149  A    between atoms: _416  and  _417
REMARK  150  A    between atoms: _416  and  _419
REMARK  151  A    between atoms: _419  and  _420
REMARK  152  A    between atoms: _420  and  _421
REMARK  153  A    between atoms: _421  and  _422
REMARK                            x       y       z     vdW  Elec       q    Type
REMARK                         _______ _______ _______ _____ _____    ______ ____
ROOT
ATOM      1  O   HOH     1       1.443  -3.353  81.525  0.00  0.00    +0.000 OA
ENDROOT
TORSDOF 0
REMARK  Name = ../refined-set-2016/4riv/4riv_pocket.pdb
REMARK  153 active torsions:
REMARK  status: ('A' for Active; 'I' for Inactive)
REMARK    1  A    between atoms: _1  and  _3
REMARK    2  A    between atoms: _3  and  _4
REMARK    3  A    between atoms: _3  and  _6
REMARK    4  A    between atoms: _6  and  _7
REMARK    5  A    between atoms: _17  and  _19
REMARK    6  A    between atoms: _19  and  _20
REMARK    7  A    between atoms: _19  and  _22
REMARK    8  A    between atoms: _22  and  _23
REMARK    9  A    between atoms: _28  and  _29
REMARK   10  A    between atoms: _31  and  _33
REMARK   11  A    between atoms: _33  and  _34
REMARK   12  A    between atoms: _33  and  _36
REMARK   13  A    between atoms: _36  and  _37
REMARK   14  A    between atoms: _47  and  _49
REMARK   15  A    between atoms: _49  and  _50
REMARK   16  A    between atoms: _49  and  _52
REMARK   17  A    between atoms: _52  and  _53
REMARK   18  A    between atoms: _56  and  _57
REMARK   19  A    between atoms: _62  and  _64
REMARK   20  A    between atoms: _64  and  _65
REMARK   21  A    between atoms: _64  and  _67
REMARK   22  A    between atoms: _67  and  _68
REMARK   23  A    between atoms: _73  and  _75
REMARK   24  A    between atoms: _75  and  _76
REMARK   25  A    between atoms: _75  and  _78
REMARK   26  A    between atoms: _78  and  _79
REMARK   27  A    between atoms: _84  and  _86
REMARK   28  A    between atoms: _86  and  _87
REMARK   29  A    between atoms: _86  and  _89
REMARK   30  A    between atoms: _89  and  _90
REMARK   31  A    between atoms: _92  and  _94
REMARK   32  A    between atoms: _94  and  _95
REMARK   33  A    between atoms: _94  and  _97
REMARK   34  A    between atoms: _97  and  _98
REMARK   35  A    between atoms: _98  and  _99
REMARK   36  A    between atoms: _104  and  _106
REMARK   37  A    between atoms: _106  and  _107
REMARK   38  A    between atoms: _106  and  _109
REMARK   39  A    between atoms: _109  and  _110
REMARK   40  A    between atoms: _113  and  _115
REMARK   41  A    between atoms: _115  and  _116
REMARK   42  A    between atoms: _115  and  _118
REMARK   43  A    between atoms: _118  and  _119
REMARK   44  A    between atoms: _119  and  _120
REMARK   45  A    between atoms: _125  and  _127
REMARK   46  A    between atoms: _127  and  _128
REMARK   47  A    between atoms: _127  and  _130
REMARK   48  A    between atoms: _130  and  _131
REMARK   49  A    between atoms: _137  and  _139
REMARK   50  A    between atoms: _150  and  _153
REMARK   51  A    between atoms: _153  and  _154
REMARK   52  A    between atoms: _162  and  _163
REMARK   53  A    between atoms: _171  and  _173
REMARK   54  A    between atoms: _173  and  _174
REMARK   55  A    between atoms: _173  and  _176
REMARK   56  A    between atoms: _176  and  _177
REMARK   57  A    between atoms: _177  and  _178
REMARK   58  A    between atoms: _181  and  _183
REMARK   59  A    between atoms: _183  and  _184
REMARK   60  A    between atoms: _183  and  _186
REMARK   61  A    between atoms: _186  and  _187
REMARK   62  A    between atoms: _192  and  _194
REMARK   63  A    between atoms: _194  and  _195
REMARK   64  A    between atoms: _194  and  _197
REMARK   65  A    between atoms: _197  and  _198
REMARK   66  A    between atoms: _198  and  _199
REMARK   67  A    between atoms: _202  and  _204
REMARK   68  A    between atoms: _204  and  _205
REMARK   69  A    between atoms: _204  and  _207
REMARK   70  A    between atoms: _207  and  _208
REMARK   71  A    between atoms: _211  and  _213
REMARK   72  A    between atoms: _213  and  _214
REMARK   73  A    between atoms: _213  and  _216
REMARK   74  A    between atoms: _216  and  _217
REMARK   75  A    between atoms: _218  and  ZN_431
REMARK   76  A    between atoms: _222  and  _224
REMARK   77  A    between atoms: _224  and  _225
REMARK   78  A    between atoms: _224  and  _227
REMARK   79  A    between atoms: _227  and  _228
REMARK   80  A    between atoms: _231  and  _233
REMARK   81  A    between atoms: _233  and  _234
REMARK   82  A    between atoms: _233  and  _236
REMARK   83  A    between atoms: _239  and  _241
REMARK   84  A    between atoms: _241  and  _242
REMARK   85  A    between atoms: _241  and  _244
REMARK   86  A    between atoms: _244  and  _245
REMARK   87  A    between atoms: _250  and  _252
REMARK   88  A    between atoms: _252  and  _253
REMARK   89  A    between atoms: _252  and  _255
REMARK   90  A    between atoms: _258  and  _260
REMARK   91  A    between atoms: _260  and  _261
REMARK   92  A    between atoms: _260  and  _263
REMARK   93  A    between atoms: _266  and  _268
REMARK   94  A    between atoms: _268  and  _269
REMARK   95  A    between atoms: _268  and  _271
REMARK   96  A    between atoms: _271  and  _272
REMARK   97  A    between atoms: _275  and  _277
REMARK   98  A    between atoms: _277  and  _278
REMARK   99  A    between atoms: _281  and  _283
REMARK  100  A    between atoms: _283  and  _284
REMARK  101  A    between atoms: _283  and  _286
REMARK  102  A    between atoms: _289  and  _291
REMARK  103  A    between atoms: _291  and  _292
REMARK  104  A    between atoms: _291  and  _294
REMARK  105  A    between atoms: _294  and  _295
REMARK  106  A    between atoms: _298  and  _300
REMARK  107  A    between atoms: _300  and  _301
REMARK  108  A    between atoms: _303  and  _305
REMARK  109  A    between atoms: _305  and  _306
REMARK  110  A    between atoms: _308  and  _310
REMARK  111  A    between atoms: _310  and  _311
REMARK  112  A    between atoms: _310  and  _313
REMARK  113  A    between atoms: _313  and  _314
REMARK  114  A    between atoms: _316  and  _318
REMARK  115  A    between atoms: _318  and  _319
REMARK  116  A    between atoms: _318  and  _321
REMARK  117  A    between atoms: _321  and  _322
REMARK  118  A    between atoms: _325  and  _327
REMARK  119  A    between atoms: _327  and  _328
REMARK  120  A    between atoms: _327  and  _330
REMARK  121  A    between atoms: _330  and  _331
REMARK  122  A    between atoms: _334  and  _336
REMARK  123  A    between atoms: _336  and  _337
REMARK  124  A    between atoms: _336  and  _339
REMARK  125  A    between atoms: _339  and  _340
REMARK  126  A    between atoms: _344  and  _345
REMARK  127  A    between atoms: _351  and  _352
REMARK  128  A    between atoms: _357  and  _359
REMARK  129  A    between atoms: _359  and  _360
REMARK  130  A    between atoms: _359  and  _362
REMARK  131  A    between atoms: _362  and  _363
REMARK  132  A    between atoms: _366  and  _368
REMARK  133  A    between atoms: _368  and  _369
REMARK  134  A    between atoms: _372  and  _374
REMARK  135  A    between atoms: _374  and  _375
REMARK  136  A    between atoms: _374  and  _377
REMARK  137  A    between atoms: _379  and  _381
REMARK  138  A    between atoms: _381  and  _382
REMARK  139  A    between atoms: _381  and  _384
REMARK  140  A    between atoms: _387  and  _389
REMARK  141  A    between atoms: _389  and  _390
REMARK  142  A    between atoms: _389  and  _392
REMARK  143  A    between atoms: _392  and  _393
REMARK  144  A    between atoms: _403  and  _405
REMARK  145  A    between atoms: _405  and  _406
REMARK  146  A    between atoms: _405  and  _408
REMARK  147  A    between atoms: _408  and  _409
REMARK  148  A    between atoms: _414  and  _416
REMARK  149  A    between atoms: _416  and  _417
REMARK  150  A    between atoms: _416  and  _419
REMARK  151  A    between atoms: _419  and  _420
REMARK  152  A    between atoms: _420  and  _421
REMARK  153  A    between atoms: _421  and  _422
REMARK                            x       y       z     vdW  Elec       q    Type
REMARK                         _______ _______ _______ _____ _____    ______ ____
ROOT
ATOM      1  O   HOH     1      -0.002  -1.044  81.594  0.00  0.00    +0.000 OA
ENDROOT
TORSDOF 0
REMARK  Name = ../refined-set-2016/4riv/4riv_pocket.pdb
REMARK  153 active torsions:
REMARK  status: ('A' for Active; 'I' for Inactive)
REMARK    1  A    between atoms: _1  and  _3
REMARK    2  A    between atoms: _3  and  _4
REMARK    3  A    between atoms: _3  and  _6
REMARK    4  A    between atoms: _6  and  _7
REMARK    5  A    between atoms: _17  and  _19
REMARK    6  A    between atoms: _19  and  _20
REMARK    7  A    between atoms: _19  and  _22
REMARK    8  A    between atoms: _22  and  _23
REMARK    9  A    between atoms: _28  and  _29
REMARK   10  A    between atoms: _31  and  _33
REMARK   11  A    between atoms: _33  and  _34
REMARK   12  A    between atoms: _33  and  _36
REMARK   13  A    between atoms: _36  and  _37
REMARK   14  A    between atoms: _47  and  _49
REMARK   15  A    between atoms: _49  and  _50
REMARK   16  A    between atoms: _49  and  _52
REMARK   17  A    between atoms: _52  and  _53
REMARK   18  A    between atoms: _56  and  _57
REMARK   19  A    between atoms: _62  and  _64
REMARK   20  A    between atoms: _64  and  _65
REMARK   21  A    between atoms: _64  and  _67
REMARK   22  A    between atoms: _67  and  _68
REMARK   23  A    between atoms: _73  and  _75
REMARK   24  A    between atoms: _75  and  _76
REMARK   25  A    between atoms: _75  and  _78
REMARK   26  A    between atoms: _78  and  _79
REMARK   27  A    between atoms: _84  and  _86
REMARK   28  A    between atoms: _86  and  _87
REMARK   29  A    between atoms: _86  and  _89
REMARK   30  A    between atoms: _89  and  _90
REMARK   31  A    between atoms: _92  and  _94
REMARK   32  A    between atoms: _94  and  _95
REMARK   33  A    between atoms: _94  and  _97
REMARK   34  A    between atoms: _97  and  _98
REMARK   35  A    between atoms: _98  and  _99
REMARK   36  A    between atoms: _104  and  _106
REMARK   37  A    between atoms: _106  and  _107
REMARK   38  A    between atoms: _106  and  _109
REMARK   39  A    between atoms: _109  and  _110
REMARK   40  A    between atoms: _113  and  _115
REMARK   41  A    between atoms: _115  and  _116
REMARK   42  A    between atoms: _115  and  _118
REMARK   43  A    between atoms: _118  and  _119
REMARK   44  A    between atoms: _119  and  _120
REMARK   45  A    between atoms: _125  and  _127
REMARK   46  A    between atoms: _127  and  _128
REMARK   47  A    between atoms: _127  and  _130
REMARK   48  A    between atoms: _130  and  _131
REMARK   49  A    between atoms: _137  and  _139
REMARK   50  A    between atoms: _150  and  _153
REMARK   51  A    between atoms: _153  and  _154
REMARK   52  A    between atoms: _162  and  _163
REMARK   53  A    between atoms: _171  and  _173
REMARK   54  A    between atoms: _173  and  _174
REMARK   55  A    between atoms: _173  and  _176
REMARK   56  A    between atoms: _176  and  _177
REMARK   57  A    between atoms: _177  and  _178
REMARK   58  A    between atoms: _181  and  _183
REMARK   59  A    between atoms: _183  and  _184
REMARK   60  A    between atoms: _183  and  _186
REMARK   61  A    between atoms: _186  and  _187
REMARK   62  A    between atoms: _192  and  _194
REMARK   63  A    between atoms: _194  and  _195
REMARK   64  A    between atoms: _194  and  _197
REMARK   65  A    between atoms: _197  and  _198
REMARK   66  A    between atoms: _198  and  _199
REMARK   67  A    between atoms: _202  and  _204
REMARK   68  A    between atoms: _204  and  _205
REMARK   69  A    between atoms: _204  and  _207
REMARK   70  A    between atoms: _207  and  _208
REMARK   71  A    between atoms: _211  and  _213
REMARK   72  A    between atoms: _213  and  _214
REMARK   73  A    between atoms: _213  and  _216
REMARK   74  A    between atoms: _216  and  _217
REMARK   75  A    between atoms: _218  and  ZN_431
REMARK   76  A    between atoms: _222  and  _224
REMARK   77  A    between atoms: _224  and  _225
REMARK   78  A    between atoms: _224  and  _227
REMARK   79  A    between atoms: _227  and  _228
REMARK   80  A    between atoms: _231  and  _233
REMARK   81  A    between atoms: _233  and  _234
REMARK   82  A    between atoms: _233  and  _236
REMARK   83  A    between atoms: _239  and  _241
REMARK   84  A    between atoms: _241  and  _242
REMARK   85  A    between atoms: _241  and  _244
REMARK   86  A    between atoms: _244  and  _245
REMARK   87  A    between atoms: _250  and  _252
REMARK   88  A    between atoms: _252  and  _253
REMARK   89  A    between atoms: _252  and  _255
REMARK   90  A    between atoms: _258  and  _260
REMARK   91  A    between atoms: _260  and  _261
REMARK   92  A    between atoms: _260  and  _263
REMARK   93  A    between atoms: _266  and  _268
REMARK   94  A    between atoms: _268  and  _269
REMARK   95  A    between atoms: _268  and  _271
REMARK   96  A    between atoms: _271  and  _272
REMARK   97  A    between atoms: _275  and  _277
REMARK   98  A    between atoms: _277  and  _278
REMARK   99  A    between atoms: _281  and  _283
REMARK  100  A    between atoms: _283  and  _284
REMARK  101  A    between atoms: _283  and  _286
REMARK  102  A    between atoms: _289  and  _291
REMARK  103  A    between atoms: _291  and  _292
REMARK  104  A    between atoms: _291  and  _294
REMARK  105  A    between atoms: _294  and  _295
REMARK  106  A    between atoms: _298  and  _300
REMARK  107  A    between atoms: _300  and  _301
REMARK  108  A    between atoms: _303  and  _305
REMARK  109  A    between atoms: _305  and  _306
REMARK  110  A    between atoms: _308  and  _310
REMARK  111  A    between atoms: _310  and  _311
REMARK  112  A    between atoms: _310  and  _313
REMARK  113  A    between atoms: _313  and  _314
REMARK  114  A    between atoms: _316  and  _318
REMARK  115  A    between atoms: _318  and  _319
REMARK  116  A    between atoms: _318  and  _321
REMARK  117  A    between atoms: _321  and  _322
REMARK  118  A    between atoms: _325  and  _327
REMARK  119  A    between atoms: _327  and  _328
REMARK  120  A    between atoms: _327  and  _330
REMARK  121  A    between atoms: _330  and  _331
REMARK  122  A    between atoms: _334  and  _336
REMARK  123  A    between atoms: _336  and  _337
REMARK  124  A    between atoms: _336  and  _339
REMARK  125  A    between atoms: _339  and  _340
REMARK  126  A    between atoms: _344  and  _345
REMARK  127  A    between atoms: _351  and  _352
REMARK  128  A    between atoms: _357  and  _359
REMARK  129  A    between atoms: _359  and  _360
REMARK  130  A    between atoms: _359  and  _362
REMARK  131  A    between atoms: _362  and  _363
REMARK  132  A    between atoms: _366  and  _368
REMARK  133  A    between atoms: _368  and  _369
REMARK  134  A    between atoms: _372  and  _374
REMARK  135  A    between atoms: _374  and  _375
REMARK  136  A    between atoms: _374  and  _377
REMARK  137  A    between atoms: _379  and  _381
REMARK  138  A    between atoms: _381  and  _382
REMARK  139  A    between atoms: _381  and  _384
REMARK  140  A    between atoms: _387  and  _389
REMARK  141  A    between atoms: _389  and  _390
REMARK  142  A    between atoms: _389  and  _392
REMARK  143  A    between atoms: _392  and  _393
REMARK  144  A    between atoms: _403  and  _405
REMARK  145  A    between atoms: _405  and  _406
REMARK  146  A    between atoms: _405  and  _408
REMARK  147  A    between atoms: _408  and  _409
REMARK  148  A    between atoms: _414  and  _416
REMARK  149  A    between atoms: _416  and  _417
REMARK  150  A    between atoms: _416  and  _419
REMARK  151  A    between atoms: _419  and  _420
REMARK  152  A    between atoms: _420  and  _421
REMARK  153  A    between atoms: _421  and  _422
REMARK                            x       y       z     vdW  Elec       q    Type
REMARK                         _______ _______ _______ _____ _____    ______ ____
ROOT
ATOM      1  O   HOH     1      -3.412   7.985  78.887  0.00  0.00    +0.000 OA
ENDROOT
TORSDOF 0
REMARK  Name = ../refined-set-2016/4riv/4riv_pocket.pdb
REMARK  153 active torsions:
REMARK  status: ('A' for Active; 'I' for Inactive)
REMARK    1  A    between atoms: _1  and  _3
REMARK    2  A    between atoms: _3  and  _4
REMARK    3  A    between atoms: _3  and  _6
REMARK    4  A    between atoms: _6  and  _7
REMARK    5  A    between atoms: _17  and  _19
REMARK    6  A    between atoms: _19  and  _20
REMARK    7  A    between atoms: _19  and  _22
REMARK    8  A    between atoms: _22  and  _23
REMARK    9  A    between atoms: _28  and  _29
REMARK   10  A    between atoms: _31  and  _33
REMARK   11  A    between atoms: _33  and  _34
REMARK   12  A    between atoms: _33  and  _36
REMARK   13  A    between atoms: _36  and  _37
REMARK   14  A    between atoms: _47  and  _49
REMARK   15  A    between atoms: _49  and  _50
REMARK   16  A    between atoms: _49  and  _52
REMARK   17  A    between atoms: _52  and  _53
REMARK   18  A    between atoms: _56  and  _57
REMARK   19  A    between atoms: _62  and  _64
REMARK   20  A    between atoms: _64  and  _65
REMARK   21  A    between atoms: _64  and  _67
REMARK   22  A    between atoms: _67  and  _68
REMARK   23  A    between atoms: _73  and  _75
REMARK   24  A    between atoms: _75  and  _76
REMARK   25  A    between atoms: _75  and  _78
REMARK   26  A    between atoms: _78  and  _79
REMARK   27  A    between atoms: _84  and  _86
REMARK   28  A    between atoms: _86  and  _87
REMARK   29  A    between atoms: _86  and  _89
REMARK   30  A    between atoms: _89  and  _90
REMARK   31  A    between atoms: _92  and  _94
REMARK   32  A    between atoms: _94  and  _95
REMARK   33  A    between atoms: _94  and  _97
REMARK   34  A    between atoms: _97  and  _98
REMARK   35  A    between atoms: _98  and  _99
REMARK   36  A    between atoms: _104  and  _106
REMARK   37  A    between atoms: _106  and  _107
REMARK   38  A    between atoms: _106  and  _109
REMARK   39  A    between atoms: _109  and  _110
REMARK   40  A    between atoms: _113  and  _115
REMARK   41  A    between atoms: _115  and  _116
REMARK   42  A    between atoms: _115  and  _118
REMARK   43  A    between atoms: _118  and  _119
REMARK   44  A    between atoms: _119  and  _120
REMARK   45  A    between atoms: _125  and  _127
REMARK   46  A    between atoms: _127  and  _128
REMARK   47  A    between atoms: _127  and  _130
REMARK   48  A    between atoms: _130  and  _131
REMARK   49  A    between atoms: _137  and  _139
REMARK   50  A    between atoms: _150  and  _153
REMARK   51  A    between atoms: _153  and  _154
REMARK   52  A    between atoms: _162  and  _163
REMARK   53  A    between atoms: _171  and  _173
REMARK   54  A    between atoms: _173  and  _174
REMARK   55  A    between atoms: _173  and  _176
REMARK   56  A    between atoms: _176  and  _177
REMARK   57  A    between atoms: _177  and  _178
REMARK   58  A    between atoms: _181  and  _183
REMARK   59  A    between atoms: _183  and  _184
REMARK   60  A    between atoms: _183  and  _186
REMARK   61  A    between atoms: _186  and  _187
REMARK   62  A    between atoms: _192  and  _194
REMARK   63  A    between atoms: _194  and  _195
REMARK   64  A    between atoms: _194  and  _197
REMARK   65  A    between atoms: _197  and  _198
REMARK   66  A    between atoms: _198  and  _199
REMARK   67  A    between atoms: _202  and  _204
REMARK   68  A    between atoms: _204  and  _205
REMARK   69  A    between atoms: _204  and  _207
REMARK   70  A    between atoms: _207  and  _208
REMARK   71  A    between atoms: _211  and  _213
REMARK   72  A    between atoms: _213  and  _214
REMARK   73  A    between atoms: _213  and  _216
REMARK   74  A    between atoms: _216  and  _217
REMARK   75  A    between atoms: _218  and  ZN_431
REMARK   76  A    between atoms: _222  and  _224
REMARK   77  A    between atoms: _224  and  _225
REMARK   78  A    between atoms: _224  and  _227
REMARK   79  A    between atoms: _227  and  _228
REMARK   80  A    between atoms: _231  and  _233
REMARK   81  A    between atoms: _233  and  _234
REMARK   82  A    between atoms: _233  and  _236
REMARK   83  A    between atoms: _239  and  _241
REMARK   84  A    between atoms: _241  and  _242
REMARK   85  A    between atoms: _241  and  _244
REMARK   86  A    between atoms: _244  and  _245
REMARK   87  A    between atoms: _250  and  _252
REMARK   88  A    between atoms: _252  and  _253
REMARK   89  A    between atoms: _252  and  _255
REMARK   90  A    between atoms: _258  and  _260
REMARK   91  A    between atoms: _260  and  _261
REMARK   92  A    between atoms: _260  and  _263
REMARK   93  A    between atoms: _266  and  _268
REMARK   94  A    between atoms: _268  and  _269
REMARK   95  A    between atoms: _268  and  _271
REMARK   96  A    between atoms: _271  and  _272
REMARK   97  A    between atoms: _275  and  _277
REMARK   98  A    between atoms: _277  and  _278
REMARK   99  A    between atoms: _281  and  _283
REMARK  100  A    between atoms: _283  and  _284
REMARK  101  A    between atoms: _283  and  _286
REMARK  102  A    between atoms: _289  and  _291
REMARK  103  A    between atoms: _291  and  _292
REMARK  104  A    between atoms: _291  and  _294
REMARK  105  A    between atoms: _294  and  _295
REMARK  106  A    between atoms: _298  and  _300
REMARK  107  A    between atoms: _300  and  _301
REMARK  108  A    between atoms: _303  and  _305
REMARK  109  A    between atoms: _305  and  _306
REMARK  110  A    between atoms: _308  and  _310
REMARK  111  A    between atoms: _310  and  _311
REMARK  112  A    between atoms: _310  and  _313
REMARK  113  A    between atoms: _313  and  _314
REMARK  114  A    between atoms: _316  and  _318
REMARK  115  A    between atoms: _318  and  _319
REMARK  116  A    between atoms: _318  and  _321
REMARK  117  A    between atoms: _321  and  _322
REMARK  118  A    between atoms: _325  and  _327
REMARK  119  A    between atoms: _327  and  _328
REMARK  120  A    between atoms: _327  and  _330
REMARK  121  A    between atoms: _330  and  _331
REMARK  122  A    between atoms: _334  and  _336
REMARK  123  A    between atoms: _336  and  _337
REMARK  124  A    between atoms: _336  and  _339
REMARK  125  A    between atoms: _339  and  _340
REMARK  126  A    between atoms: _344  and  _345
REMARK  127  A    between atoms: _351  and  _352
REMARK  128  A    between atoms: _357  and  _359
REMARK  129  A    between atoms: _359  and  _360
REMARK  130  A    between atoms: _359  and  _362
REMARK  131  A    between atoms: _362  and  _363
REMARK  132  A    between atoms: _366  and  _368
REMARK  133  A    between atoms: _368  and  _369
REMARK  134  A    between atoms: _372  and  _374
REMARK  135  A    between atoms: _374  and  _375
REMARK  136  A    between atoms: _374  and  _377
REMARK  137  A    between atoms: _379  and  _381
REMARK  138  A    between atoms: _381  and  _382
REMARK  139  A    between atoms: _381  and  _384
REMARK  140  A    between atoms: _387  and  _389
REMARK  141  A    between atoms: _389  and  _390
REMARK  142  A    between atoms: _389  and  _392
REMARK  143  A    between atoms: _392  and  _393
REMARK  144  A    between atoms: _403  and  _405
REMARK  145  A    between atoms: _405  and  _406
REMARK  146  A    between atoms: _405  and  _408
REMARK  147  A    between atoms: _408  and  _409
REMARK  148  A    between atoms: _414  and  _416
REMARK  149  A    between atoms: _416  and  _417
REMARK  150  A    between atoms: _416  and  _419
REMARK  151  A    between atoms: _419  and  _420
REMARK  152  A    between atoms: _420  and  _421
REMARK  153  A    between atoms: _421  and  _422
REMARK                            x       y       z     vdW  Elec       q    Type
REMARK                         _______ _______ _______ _____ _____    ______ ____
ROOT
ATOM      1  O   HOH     1      -2.352   7.094  82.255  0.00  0.00    +0.000 OA
ENDROOT
TORSDOF 0
