REMARK  Name = ../refined-set-2016/4cc5/4cc5_pocket.pdb
REMARK  151 active torsions:
REMARK  status: ('A' for Active; 'I' for Inactive)
REMARK    1  A    between atoms: _1  and  _3
REMARK    2  A    between atoms: _3  and  _4
REMARK    3  A    between atoms: _3  and  _6
REMARK    4  A    between atoms: _6  and  _7
REMARK    5  A    between atoms: _7  and  _8
REMARK    6  A    between atoms: _10  and  _12
REMARK    7  A    between atoms: _12  and  _13
REMARK    8  A    between atoms: _12  and  _15
REMARK    9  A    between atoms: _15  and  _16
REMARK   10  A    between atoms: _19  and  _21
REMARK   11  A    between atoms: _21  and  _22
REMARK   12  A    between atoms: _21  and  _24
REMARK   13  A    between atoms: _24  and  _25
REMARK   14  A    between atoms: _27  and  _29
REMARK   15  A    between atoms: _29  and  _30
REMARK   16  A    between atoms: _29  and  _32
REMARK   17  A    between atoms: _32  and  _33
REMARK   18  A    between atoms: _36  and  _38
REMARK   19  A    between atoms: _38  and  _39
REMARK   20  A    between atoms: _38  and  _41
REMARK   21  A    between atoms: _41  and  _42
REMARK   22  A    between atoms: _42  and  _43
REMARK   23  A    between atoms: _45  and  _47
REMARK   24  A    between atoms: _47  and  _48
REMARK   25  A    between atoms: _47  and  _50
REMARK   26  A    between atoms: _52  and  _54
REMARK   27  A    between atoms: _54  and  _55
REMARK   28  A    between atoms: _54  and  _57
REMARK   29  A    between atoms: _57  and  _58
REMARK   30  A    between atoms: _58  and  _59
REMARK   31  A    between atoms: _62  and  _64
REMARK   32  A    between atoms: _64  and  _65
REMARK   33  A    between atoms: _64  and  _67
REMARK   34  A    between atoms: _67  and  _68
REMARK   35  A    between atoms: _71  and  _73
REMARK   36  A    between atoms: _73  and  _74
REMARK   37  A    between atoms: _73  and  _76
REMARK   38  A    between atoms: _76  and  _77
REMARK   39  A    between atoms: _77  and  _78
REMARK   40  A    between atoms: _78  and  _79
REMARK   41  A    between atoms: _79  and  _80
REMARK   42  A    between atoms: _84  and  _86
REMARK   43  A    between atoms: _86  and  _87
REMARK   44  A    between atoms: _86  and  _89
REMARK   45  A    between atoms: _89  and  _90
REMARK   46  A    between atoms: _93  and  _95
REMARK   47  A    between atoms: _95  and  _96
REMARK   48  A    between atoms: _99  and  _101
REMARK   49  A    between atoms: _101  and  _102
REMARK   50  A    between atoms: _101  and  _104
REMARK   51  A    between atoms: _104  and  _105
REMARK   52  A    between atoms: _105  and  _106
REMARK   53  A    between atoms: _106  and  _107
REMARK   54  A    between atoms: _116  and  _118
REMARK   55  A    between atoms: _118  and  _119
REMARK   56  A    between atoms: _118  and  _121
REMARK   57  A    between atoms: _121  and  _122
REMARK   58  A    between atoms: _122  and  _123
REMARK   59  A    between atoms: _123  and  _124
REMARK   60  A    between atoms: _133  and  _135
REMARK   61  A    between atoms: _135  and  _136
REMARK   62  A    between atoms: _138  and  _140
REMARK   63  A    between atoms: _140  and  _141
REMARK   64  A    between atoms: _140  and  _143
REMARK   65  A    between atoms: _143  and  _144
REMARK   66  A    between atoms: _144  and  _145
REMARK   67  A    between atoms: _148  and  _150
REMARK   68  A    between atoms: _150  and  _151
REMARK   69  A    between atoms: _150  and  _153
REMARK   70  A    between atoms: _153  and  _154
REMARK   71  A    between atoms: _160  and  _162
REMARK   72  A    between atoms: _162  and  _163
REMARK   73  A    between atoms: _162  and  _165
REMARK   74  A    between atoms: _165  and  _166
REMARK   75  A    between atoms: _169  and  _171
REMARK   76  A    between atoms: _171  and  _172
REMARK   77  A    between atoms: _171  and  _174
REMARK   78  A    between atoms: _174  and  _175
REMARK   79  A    between atoms: _180  and  _181
REMARK   80  A    between atoms: _183  and  _185
REMARK   81  A    between atoms: _185  and  _186
REMARK   82  A    between atoms: _185  and  _188
REMARK   83  A    between atoms: _188  and  _189
REMARK   84  A    between atoms: _191  and  _193
REMARK   85  A    between atoms: _193  and  _194
REMARK   86  A    between atoms: _193  and  _196
REMARK   87  A    between atoms: _199  and  _201
REMARK   88  A    between atoms: _201  and  _202
REMARK   89  A    between atoms: _201  and  _204
REMARK   90  A    between atoms: _204  and  _205
REMARK   91  A    between atoms: _205  and  _206
REMARK   92  A    between atoms: _211  and  _213
REMARK   93  A    between atoms: _213  and  _214
REMARK   94  A    between atoms: _213  and  _216
REMARK   95  A    between atoms: _216  and  _217
REMARK   96  A    between atoms: _220  and  _222
REMARK   97  A    between atoms: _222  and  _223
REMARK   98  A    between atoms: _222  and  _225
REMARK   99  A    between atoms: _225  and  _226
REMARK  100  A    between atoms: _231  and  _233
REMARK  101  A    between atoms: _233  and  _234
REMARK  102  A    between atoms: _233  and  _236
REMARK  103  A    between atoms: _236  and  _237
REMARK  104  A    between atoms: _237  and  _238
REMARK  105  A    between atoms: _238  and  _239
REMARK  106  A    between atoms: _248  and  _250
REMARK  107  A    between atoms: _250  and  _251
REMARK  108  A    between atoms: _250  and  _253
REMARK  109  A    between atoms: _253  and  _254
REMARK  110  A    between atoms: _257  and  _259
REMARK  111  A    between atoms: _259  and  _260
REMARK  112  A    between atoms: _262  and  _264
REMARK  113  A    between atoms: _264  and  _265
REMARK  114  A    between atoms: _264  and  _267
REMARK  115  A    between atoms: _267  and  _268
REMARK  116  A    between atoms: _271  and  _273
REMARK  117  A    between atoms: _273  and  _274
REMARK  118  A    between atoms: _273  and  _276
REMARK  119  A    between atoms: _279  and  _281
REMARK  120  A    between atoms: _281  and  _282
REMARK  121  A    between atoms: _281  and  _284
REMARK  122  A    between atoms: _284  and  _285
REMARK  123  A    between atoms: _288  and  _290
REMARK  124  A    between atoms: _290  and  _291
REMARK  125  A    between atoms: _290  and  _293
REMARK  126  A    between atoms: _293  and  _294
REMARK  127  A    between atoms: _294  and  _295
REMARK  128  A    between atoms: _295  and  _296
REMARK  129  A    between atoms: _296  and  _297
REMARK  130  A    between atoms: _301  and  _303
REMARK  131  A    between atoms: _303  and  _304
REMARK  132  A    between atoms: _303  and  _306
REMARK  133  A    between atoms: _306  and  _307
REMARK  134  A    between atoms: _307  and  _308
REMARK  135  A    between atoms: _313  and  _315
REMARK  136  A    between atoms: _315  and  _316
REMARK  137  A    between atoms: _315  and  _318
REMARK  138  A    between atoms: _318  and  _319
REMARK  139  A    between atoms: _326  and  _327
REMARK  140  A    between atoms: _332  and  _334
REMARK  141  A    between atoms: _334  and  _335
REMARK  142  A    between atoms: _334  and  _337
REMARK  143  A    between atoms: _337  and  _338
REMARK  144  A    between atoms: _348  and  _350
REMARK  145  A    between atoms: _350  and  _351
REMARK  146  A    between atoms: _354  and  _356
REMARK  147  A    between atoms: _356  and  _357
REMARK  148  A    between atoms: _356  and  _359
REMARK  149  A    between atoms: _359  and  _360
REMARK  150  A    between atoms: _363  and  _365
REMARK  151  A    between atoms: _365  and  _366
REMARK                            x       y       z     vdW  Elec       q    Type
REMARK                         _______ _______ _______ _____ _____    ______ ____
ROOT
ATOM      1  C   LEU A   2      25.007  16.904   4.171  0.00  0.00    +0.241 C 
ATOM      2  O   LEU A   2      25.267  16.511   5.294  0.00  0.00    -0.273 OA
ATOM      3  N   SER A   3      25.699  16.569   3.101  0.00  0.00    -0.295 N 
ATOM      4  H   SER A   3      25.339  16.859   2.170  0.00  0.00    +0.150 HD
ENDROOT
BRANCH   1   5
ATOM      5  CA  LEU A   2      23.846  17.828   3.923  0.00  0.00    +0.149 C 
BRANCH   5   7
ATOM      6  C   MET A   1      21.970  16.528   4.757  0.00  0.00    +0.238 C 
ATOM      7  N   LEU A   2      22.741  17.604   4.836  0.00  0.00    -0.297 N 
ATOM      8  H   LEU A   2      22.548  18.309   5.575  0.00  0.00    +0.150 HD
ATOM      9  O   MET A   1      22.200  15.605   4.002  0.00  0.00    -0.274 OA
BRANCH   6  10
ATOM     10  CA  MET A   1      20.759  16.495   5.674  0.00  0.00    +0.146 C 
BRANCH  10  11
ATOM     11  N   MET A   1      19.619  15.971   4.932  0.00  0.00    -0.238 NA
ATOM     12  H   MET A   1      19.385  14.959   4.988  0.00  0.00    +0.142 HD
ENDBRANCH  10  11
BRANCH  10  13
ATOM     13  CB  MET A   1      21.015  15.639   6.909  0.00  0.00    +0.038 C 
BRANCH  13  14
ATOM     14  CG  MET A   1      19.790  15.566   7.794  0.00  0.00    +0.060 C 
BRANCH  14  15
ATOM     15  SD  MET A   1      19.993  14.657   9.339  0.00  0.00    -0.139 S 
ATOM     16  CE  MET A   1      21.472  15.367  10.088  0.00  0.00    +0.069 C 
ENDBRANCH  14  15
ENDBRANCH  13  14
ENDBRANCH  10  13
ENDBRANCH   6  10
ENDBRANCH   5   7
BRANCH   5  17
ATOM     17  CB  LEU A   2      24.373  19.252   4.085  0.00  0.00    +0.029 C 
BRANCH  17  18
ATOM     18  CG  LEU A   2      23.345  20.305   3.727  0.00  0.00    +0.002 C 
ATOM     19  CD2 LEU A   2      23.984  21.672   3.822  0.00  0.00    +0.000 C 
ATOM     20  CD1 LEU A   2      22.807  20.008   2.333  0.00  0.00    +0.000 C 
ENDBRANCH  17  18
ENDBRANCH   5  17
ENDBRANCH   1   5
BRANCH   3  21
ATOM     21  CA  SER A   3      26.941  15.814   3.156  0.00  0.00    +0.178 C 
BRANCH  21  22
ATOM     22  C   SER A   3      28.113  16.798   2.925  0.00  0.00    +0.243 C 
ATOM     23  N   LEU A   4      29.059  16.871   3.851  0.00  0.00    -0.298 N 
ATOM     24  H   LEU A   4      28.976  16.283   4.705  0.00  0.00    +0.150 HD
ATOM     25  O   SER A   3      28.145  17.480   1.904  0.00  0.00    -0.273 OA
BRANCH  23  26
ATOM     26  CA  LEU A   4      30.236  17.769   3.704  0.00  0.00    +0.137 C 
BRANCH  26  27
ATOM     27  C   LEU A   4      31.404  17.107   3.001  0.00  0.00    +0.227 C 
ATOM     28  O   LEU A   4      31.689  15.925   3.224  0.00  0.00    -0.286 OA
ENDBRANCH  26  27
BRANCH  26  29
ATOM     29  CB  LEU A   4      30.770  18.221   5.062  0.00  0.00    +0.028 C 
BRANCH  29  30
ATOM     30  CG  LEU A   4      29.798  18.971   5.973  0.00  0.00    +0.002 C 
ATOM     31  CD2 LEU A   4      30.463  19.210   7.317  0.00  0.00    +0.000 C 
ATOM     32  CD1 LEU A   4      29.347  20.280   5.335  0.00  0.00    +0.000 C 
ENDBRANCH  29  30
ENDBRANCH  26  29
ENDBRANCH  23  26
ENDBRANCH  21  22
BRANCH  21  33
ATOM     33  CB  SER A   3      26.909  14.765   2.041  0.00  0.00    +0.166 C 
BRANCH  33  34
ATOM     34  OG  SER A   3      28.097  14.001   1.978  0.00  0.00    -0.380 OA
ATOM     35  H   SER A   3      28.025  13.341   1.244  0.00  0.00    +0.211 HD
ENDBRANCH  33  34
ENDBRANCH  21  33
ENDBRANCH   3  21
TORSDOF 17
REMARK  Name = ../refined-set-2016/4cc5/4cc5_pocket.pdb
REMARK  151 active torsions:
REMARK  status: ('A' for Active; 'I' for Inactive)
REMARK    1  A    between atoms: _1  and  _3
REMARK    2  A    between atoms: _3  and  _4
REMARK    3  A    between atoms: _3  and  _6
REMARK    4  A    between atoms: _6  and  _7
REMARK    5  A    between atoms: _7  and  _8
REMARK    6  A    between atoms: _10  and  _12
REMARK    7  A    between atoms: _12  and  _13
REMARK    8  A    between atoms: _12  and  _15
REMARK    9  A    between atoms: _15  and  _16
REMARK   10  A    between atoms: _19  and  _21
REMARK   11  A    between atoms: _21  and  _22
REMARK   12  A    between atoms: _21  and  _24
REMARK   13  A    between atoms: _24  and  _25
REMARK   14  A    between atoms: _27  and  _29
REMARK   15  A    between atoms: _29  and  _30
REMARK   16  A    between atoms: _29  and  _32
REMARK   17  A    between atoms: _32  and  _33
REMARK   18  A    between atoms: _36  and  _38
REMARK   19  A    between atoms: _38  and  _39
REMARK   20  A    between atoms: _38  and  _41
REMARK   21  A    between atoms: _41  and  _42
REMARK   22  A    between atoms: _42  and  _43
REMARK   23  A    between atoms: _45  and  _47
REMARK   24  A    between atoms: _47  and  _48
REMARK   25  A    between atoms: _47  and  _50
REMARK   26  A    between atoms: _52  and  _54
REMARK   27  A    between atoms: _54  and  _55
REMARK   28  A    between atoms: _54  and  _57
REMARK   29  A    between atoms: _57  and  _58
REMARK   30  A    between atoms: _58  and  _59
REMARK   31  A    between atoms: _62  and  _64
REMARK   32  A    between atoms: _64  and  _65
REMARK   33  A    between atoms: _64  and  _67
REMARK   34  A    between atoms: _67  and  _68
REMARK   35  A    between atoms: _71  and  _73
REMARK   36  A    between atoms: _73  and  _74
REMARK   37  A    between atoms: _73  and  _76
REMARK   38  A    between atoms: _76  and  _77
REMARK   39  A    between atoms: _77  and  _78
REMARK   40  A    between atoms: _78  and  _79
REMARK   41  A    between atoms: _79  and  _80
REMARK   42  A    between atoms: _84  and  _86
REMARK   43  A    between atoms: _86  and  _87
REMARK   44  A    between atoms: _86  and  _89
REMARK   45  A    between atoms: _89  and  _90
REMARK   46  A    between atoms: _93  and  _95
REMARK   47  A    between atoms: _95  and  _96
REMARK   48  A    between atoms: _99  and  _101
REMARK   49  A    between atoms: _101  and  _102
REMARK   50  A    between atoms: _101  and  _104
REMARK   51  A    between atoms: _104  and  _105
REMARK   52  A    between atoms: _105  and  _106
REMARK   53  A    between atoms: _106  and  _107
REMARK   54  A    between atoms: _116  and  _118
REMARK   55  A    between atoms: _118  and  _119
REMARK   56  A    between atoms: _118  and  _121
REMARK   57  A    between atoms: _121  and  _122
REMARK   58  A    between atoms: _122  and  _123
REMARK   59  A    between atoms: _123  and  _124
REMARK   60  A    between atoms: _133  and  _135
REMARK   61  A    between atoms: _135  and  _136
REMARK   62  A    between atoms: _138  and  _140
REMARK   63  A    between atoms: _140  and  _141
REMARK   64  A    between atoms: _140  and  _143
REMARK   65  A    between atoms: _143  and  _144
REMARK   66  A    between atoms: _144  and  _145
REMARK   67  A    between atoms: _148  and  _150
REMARK   68  A    between atoms: _150  and  _151
REMARK   69  A    between atoms: _150  and  _153
REMARK   70  A    between atoms: _153  and  _154
REMARK   71  A    between atoms: _160  and  _162
REMARK   72  A    between atoms: _162  and  _163
REMARK   73  A    between atoms: _162  and  _165
REMARK   74  A    between atoms: _165  and  _166
REMARK   75  A    between atoms: _169  and  _171
REMARK   76  A    between atoms: _171  and  _172
REMARK   77  A    between atoms: _171  and  _174
REMARK   78  A    between atoms: _174  and  _175
REMARK   79  A    between atoms: _180  and  _181
REMARK   80  A    between atoms: _183  and  _185
REMARK   81  A    between atoms: _185  and  _186
REMARK   82  A    between atoms: _185  and  _188
REMARK   83  A    between atoms: _188  and  _189
REMARK   84  A    between atoms: _191  and  _193
REMARK   85  A    between atoms: _193  and  _194
REMARK   86  A    between atoms: _193  and  _196
REMARK   87  A    between atoms: _199  and  _201
REMARK   88  A    between atoms: _201  and  _202
REMARK   89  A    between atoms: _201  and  _204
REMARK   90  A    between atoms: _204  and  _205
REMARK   91  A    between atoms: _205  and  _206
REMARK   92  A    between atoms: _211  and  _213
REMARK   93  A    between atoms: _213  and  _214
REMARK   94  A    between atoms: _213  and  _216
REMARK   95  A    between atoms: _216  and  _217
REMARK   96  A    between atoms: _220  and  _222
REMARK   97  A    between atoms: _222  and  _223
REMARK   98  A    between atoms: _222  and  _225
REMARK   99  A    between atoms: _225  and  _226
REMARK  100  A    between atoms: _231  and  _233
REMARK  101  A    between atoms: _233  and  _234
REMARK  102  A    between atoms: _233  and  _236
REMARK  103  A    between atoms: _236  and  _237
REMARK  104  A    between atoms: _237  and  _238
REMARK  105  A    between atoms: _238  and  _239
REMARK  106  A    between atoms: _248  and  _250
REMARK  107  A    between atoms: _250  and  _251
REMARK  108  A    between atoms: _250  and  _253
REMARK  109  A    between atoms: _253  and  _254
REMARK  110  A    between atoms: _257  and  _259
REMARK  111  A    between atoms: _259  and  _260
REMARK  112  A    between atoms: _262  and  _264
REMARK  113  A    between atoms: _264  and  _265
REMARK  114  A    between atoms: _264  and  _267
REMARK  115  A    between atoms: _267  and  _268
REMARK  116  A    between atoms: _271  and  _273
REMARK  117  A    between atoms: _273  and  _274
REMARK  118  A    between atoms: _273  and  _276
REMARK  119  A    between atoms: _279  and  _281
REMARK  120  A    between atoms: _281  and  _282
REMARK  121  A    between atoms: _281  and  _284
REMARK  122  A    between atoms: _284  and  _285
REMARK  123  A    between atoms: _288  and  _290
REMARK  124  A    between atoms: _290  and  _291
REMARK  125  A    between atoms: _290  and  _293
REMARK  126  A    between atoms: _293  and  _294
REMARK  127  A    between atoms: _294  and  _295
REMARK  128  A    between atoms: _295  and  _296
REMARK  129  A    between atoms: _296  and  _297
REMARK  130  A    between atoms: _301  and  _303
REMARK  131  A    between atoms: _303  and  _304
REMARK  132  A    between atoms: _303  and  _306
REMARK  133  A    between atoms: _306  and  _307
REMARK  134  A    between atoms: _307  and  _308
REMARK  135  A    between atoms: _313  and  _315
REMARK  136  A    between atoms: _315  and  _316
REMARK  137  A    between atoms: _315  and  _318
REMARK  138  A    between atoms: _318  and  _319
REMARK  139  A    between atoms: _326  and  _327
REMARK  140  A    between atoms: _332  and  _334
REMARK  141  A    between atoms: _334  and  _335
REMARK  142  A    between atoms: _334  and  _337
REMARK  143  A    between atoms: _337  and  _338
REMARK  144  A    between atoms: _348  and  _350
REMARK  145  A    between atoms: _350  and  _351
REMARK  146  A    between atoms: _354  and  _356
REMARK  147  A    between atoms: _356  and  _357
REMARK  148  A    between atoms: _356  and  _359
REMARK  149  A    between atoms: _359  and  _360
REMARK  150  A    between atoms: _363  and  _365
REMARK  151  A    between atoms: _365  and  _366
REMARK                            x       y       z     vdW  Elec       q    Type
REMARK                         _______ _______ _______ _____ _____    ______ ____
ROOT
ATOM      1  CA  LEU A   4      34.007  21.288  16.419  0.00  0.00    +0.149 C 
ENDROOT
BRANCH   1   3
ATOM      2  C   GLU A   3      33.738  23.242  15.023  0.00  0.00    +0.241 C 
ATOM      3  N   LEU A   4      33.588  22.649  16.192  0.00  0.00    -0.297 N 
ATOM      4  H   LEU A   4      33.154  23.180  16.974  0.00  0.00    +0.150 HD
ATOM      5  O   GLU A   3      34.340  22.746  14.093  0.00  0.00    -0.273 OA
BRANCH   2   6
ATOM      6  CA  GLU A   3      33.091  24.597  14.927  0.00  0.00    +0.149 C 
BRANCH   6   9
ATOM      7  C   CYS A   2      33.863  26.739  14.082  0.00  0.00    +0.242 C 
ATOM      8  O   CYS A   2      33.560  27.363  15.101  0.00  0.00    -0.273 OA
ATOM      9  N   GLU A   3      33.691  25.431  13.917  0.00  0.00    -0.297 N 
ATOM     10  H   GLU A   3      34.001  24.994  13.026  0.00  0.00    +0.150 HD
BRANCH   7  11
ATOM     11  CA  CYS A   2      34.473  27.442  12.914  0.00  0.00    +0.160 C 
BRANCH  11  13
ATOM     12  C   MET A   1      33.056  28.802  11.467  0.00  0.00    +0.238 C 
ATOM     13  N   CYS A   2      33.723  28.648  12.611  0.00  0.00    -0.297 N 
ATOM     14  H   CYS A   2      33.706  29.418  13.310  0.00  0.00    +0.150 HD
ATOM     15  O   MET A   1      33.041  27.969  10.554  0.00  0.00    -0.274 OA
BRANCH  12  16
ATOM     16  CA  MET A   1      32.274  30.091  11.301  0.00  0.00    +0.146 C 
BRANCH  16  17
ATOM     17  N   MET A   1      32.693  30.619  10.023  0.00  0.00    -0.238 NA
ATOM     18  H   MET A   1      32.306  30.196   9.155  0.00  0.00    +0.142 HD
ENDBRANCH  16  17
BRANCH  16  19
ATOM     19  CB  MET A   1      30.776  29.824  11.269  0.00  0.00    +0.038 C 
BRANCH  19  20
ATOM     20  CG  MET A   1      30.263  29.136  12.500  0.00  0.00    +0.060 C 
BRANCH  20  21
ATOM     21  SD  MET A   1      30.105  30.336  13.821  0.00  0.00    -0.139 S 
ATOM     22  CE  MET A   1      28.818  29.536  14.663  0.00  0.00    +0.069 C 
ENDBRANCH  20  21
ENDBRANCH  19  20
ENDBRANCH  16  19
ENDBRANCH  12  16
ENDBRANCH  11  13
BRANCH  11  23
ATOM     23  CB  CYS A   2      35.935  27.752  13.225  0.00  0.00    +0.098 C 
ATOM     24  SG  CYS A   2      36.690  28.742  11.947  0.00  0.00    -0.080 S 
ENDBRANCH  11  23
ENDBRANCH   7  11
ENDBRANCH   6   9
BRANCH   6  25
ATOM     25  CB  GLU A   3      31.599  24.359  14.624  0.00  0.00    +0.041 C 
BRANCH  25  26
ATOM     26  CG  GLU A   3      30.790  25.611  14.405  0.00  0.00    +0.116 C 
BRANCH  26  27
ATOM     27  CD  GLU A   3      29.431  25.297  13.831  0.00  0.00    +0.365 C 
ATOM     28  OE2 GLU A   3      28.669  24.532  14.480  0.00  0.00    -0.246 OA
ATOM     29  OE1 GLU A   3      29.139  25.823  12.727  0.00  0.00    -0.246 OA
ENDBRANCH  26  27
ENDBRANCH  25  26
ENDBRANCH   6  25
ENDBRANCH   2   6
ENDBRANCH   1   3
BRANCH   1  30
ATOM     30  C   LEU A   4      33.031  20.316  15.780  0.00  0.00    +0.241 C 
ATOM     31  O   LEU A   4      31.806  20.469  15.896  0.00  0.00    -0.273 OA
ATOM     32  N   LYS A   5      33.575  19.307  15.100  0.00  0.00    -0.297 N 
ATOM     33  H   LYS A   5      34.608  19.278  14.982  0.00  0.00    +0.150 HD
BRANCH  32  34
ATOM     34  CA  LYS A   5      32.781  18.261  14.527  0.00  0.00    +0.149 C 
BRANCH  34  35
ATOM     35  C   LYS A   5      32.713  17.141  15.527  0.00  0.00    +0.241 C 
ATOM     36  N   ILE A   6      31.563  17.009  16.144  0.00  0.00    -0.298 N 
ATOM     37  H   ILE A   6      30.770  17.619  15.860  0.00  0.00    +0.150 HD
ATOM     38  O   LYS A   5      33.686  16.405  15.735  0.00  0.00    -0.273 OA
BRANCH  36  39
ATOM     39  CA  ILE A   6      31.357  16.048  17.204  0.00  0.00    +0.137 C 
BRANCH  39  40
ATOM     40  CB  ILE A   6      30.032  16.357  17.965  0.00  0.00    +0.026 C 
ATOM     41  CG2 ILE A   6      29.885  15.440  19.166  0.00  0.00    +0.002 C 
BRANCH  40  42
ATOM     42  CG1 ILE A   6      29.925  17.833  18.406  0.00  0.00    +0.002 C 
ATOM     43  CD1 ILE A   6      31.077  18.311  19.273  0.00  0.00    +0.000 C 
ENDBRANCH  40  42
ENDBRANCH  39  40
BRANCH  39  44
ATOM     44  C   ILE A   6      31.270  14.629  16.626  0.00  0.00    +0.227 C 
ATOM     45  O   ILE A   6      30.536  14.386  15.674  0.00  0.00    -0.286 OA
ENDBRANCH  39  44
ENDBRANCH  36  39
ENDBRANCH  34  35
BRANCH  34  46
ATOM     46  CB  LYS A   5      33.417  17.738  13.237  0.00  0.00    +0.029 C 
BRANCH  46  47
ATOM     47  CG  LYS A   5      32.437  16.943  12.394  0.00  0.00    +0.000 C 
BRANCH  47  48
ATOM     48  CD  LYS A   5      33.063  16.519  11.083  0.00  0.00    -0.024 C 
BRANCH  48  49
ATOM     49  CE  LYS A   5      32.047  15.940  10.115  0.00  0.00    -0.086 C 
BRANCH  49  50
ATOM     50  NZ  LYS A   5      31.643  14.554  10.496  0.00  0.00    +0.380 N 
ATOM     51  HZ1 LYS A   5      31.219  14.566  11.446  0.00  0.00    -0.089 HD
ATOM     52  HZ2 LYS A   5      32.481  13.938  10.497  0.00  0.00    -0.089 HD
ATOM     53  HZ3 LYS A   5      30.949  14.196   9.810  0.00  0.00    -0.089 HD
ENDBRANCH  49  50
ENDBRANCH  48  49
ENDBRANCH  47  48
ENDBRANCH  46  47
ENDBRANCH  34  46
ENDBRANCH  32  34
ENDBRANCH   1  30
BRANCH   1  54
ATOM     54  CB  LEU A   4      34.096  21.046  17.930  0.00  0.00    +0.029 C 
BRANCH  54  55
ATOM     55  CG  LEU A   4      34.938  22.069  18.698  0.00  0.00    +0.002 C 
ATOM     56  CD2 LEU A   4      34.940  21.727  20.193  0.00  0.00    +0.000 C 
ATOM     57  CD1 LEU A   4      36.367  22.174  18.158  0.00  0.00    +0.000 C 
ENDBRANCH  54  55
ENDBRANCH   1  54
TORSDOF 28
REMARK  Name = ../refined-set-2016/4cc5/4cc5_pocket.pdb
REMARK  151 active torsions:
REMARK  status: ('A' for Active; 'I' for Inactive)
REMARK    1  A    between atoms: _1  and  _3
REMARK    2  A    between atoms: _3  and  _4
REMARK    3  A    between atoms: _3  and  _6
REMARK    4  A    between atoms: _6  and  _7
REMARK    5  A    between atoms: _7  and  _8
REMARK    6  A    between atoms: _10  and  _12
REMARK    7  A    between atoms: _12  and  _13
REMARK    8  A    between atoms: _12  and  _15
REMARK    9  A    between atoms: _15  and  _16
REMARK   10  A    between atoms: _19  and  _21
REMARK   11  A    between atoms: _21  and  _22
REMARK   12  A    between atoms: _21  and  _24
REMARK   13  A    between atoms: _24  and  _25
REMARK   14  A    between atoms: _27  and  _29
REMARK   15  A    between atoms: _29  and  _30
REMARK   16  A    between atoms: _29  and  _32
REMARK   17  A    between atoms: _32  and  _33
REMARK   18  A    between atoms: _36  and  _38
REMARK   19  A    between atoms: _38  and  _39
REMARK   20  A    between atoms: _38  and  _41
REMARK   21  A    between atoms: _41  and  _42
REMARK   22  A    between atoms: _42  and  _43
REMARK   23  A    between atoms: _45  and  _47
REMARK   24  A    between atoms: _47  and  _48
REMARK   25  A    between atoms: _47  and  _50
REMARK   26  A    between atoms: _52  and  _54
REMARK   27  A    between atoms: _54  and  _55
REMARK   28  A    between atoms: _54  and  _57
REMARK   29  A    between atoms: _57  and  _58
REMARK   30  A    between atoms: _58  and  _59
REMARK   31  A    between atoms: _62  and  _64
REMARK   32  A    between atoms: _64  and  _65
REMARK   33  A    between atoms: _64  and  _67
REMARK   34  A    between atoms: _67  and  _68
REMARK   35  A    between atoms: _71  and  _73
REMARK   36  A    between atoms: _73  and  _74
REMARK   37  A    between atoms: _73  and  _76
REMARK   38  A    between atoms: _76  and  _77
REMARK   39  A    between atoms: _77  and  _78
REMARK   40  A    between atoms: _78  and  _79
REMARK   41  A    between atoms: _79  and  _80
REMARK   42  A    between atoms: _84  and  _86
REMARK   43  A    between atoms: _86  and  _87
REMARK   44  A    between atoms: _86  and  _89
REMARK   45  A    between atoms: _89  and  _90
REMARK   46  A    between atoms: _93  and  _95
REMARK   47  A    between atoms: _95  and  _96
REMARK   48  A    between atoms: _99  and  _101
REMARK   49  A    between atoms: _101  and  _102
REMARK   50  A    between atoms: _101  and  _104
REMARK   51  A    between atoms: _104  and  _105
REMARK   52  A    between atoms: _105  and  _106
REMARK   53  A    between atoms: _106  and  _107
REMARK   54  A    between atoms: _116  and  _118
REMARK   55  A    between atoms: _118  and  _119
REMARK   56  A    between atoms: _118  and  _121
REMARK   57  A    between atoms: _121  and  _122
REMARK   58  A    between atoms: _122  and  _123
REMARK   59  A    between atoms: _123  and  _124
REMARK   60  A    between atoms: _133  and  _135
REMARK   61  A    between atoms: _135  and  _136
REMARK   62  A    between atoms: _138  and  _140
REMARK   63  A    between atoms: _140  and  _141
REMARK   64  A    between atoms: _140  and  _143
REMARK   65  A    between atoms: _143  and  _144
REMARK   66  A    between atoms: _144  and  _145
REMARK   67  A    between atoms: _148  and  _150
REMARK   68  A    between atoms: _150  and  _151
REMARK   69  A    between atoms: _150  and  _153
REMARK   70  A    between atoms: _153  and  _154
REMARK   71  A    between atoms: _160  and  _162
REMARK   72  A    between atoms: _162  and  _163
REMARK   73  A    between atoms: _162  and  _165
REMARK   74  A    between atoms: _165  and  _166
REMARK   75  A    between atoms: _169  and  _171
REMARK   76  A    between atoms: _171  and  _172
REMARK   77  A    between atoms: _171  and  _174
REMARK   78  A    between atoms: _174  and  _175
REMARK   79  A    between atoms: _180  and  _181
REMARK   80  A    between atoms: _183  and  _185
REMARK   81  A    between atoms: _185  and  _186
REMARK   82  A    between atoms: _185  and  _188
REMARK   83  A    between atoms: _188  and  _189
REMARK   84  A    between atoms: _191  and  _193
REMARK   85  A    between atoms: _193  and  _194
REMARK   86  A    between atoms: _193  and  _196
REMARK   87  A    between atoms: _199  and  _201
REMARK   88  A    between atoms: _201  and  _202
REMARK   89  A    between atoms: _201  and  _204
REMARK   90  A    between atoms: _204  and  _205
REMARK   91  A    between atoms: _205  and  _206
REMARK   92  A    between atoms: _211  and  _213
REMARK   93  A    between atoms: _213  and  _214
REMARK   94  A    between atoms: _213  and  _216
REMARK   95  A    between atoms: _216  and  _217
REMARK   96  A    between atoms: _220  and  _222
REMARK   97  A    between atoms: _222  and  _223
REMARK   98  A    between atoms: _222  and  _225
REMARK   99  A    between atoms: _225  and  _226
REMARK  100  A    between atoms: _231  and  _233
REMARK  101  A    between atoms: _233  and  _234
REMARK  102  A    between atoms: _233  and  _236
REMARK  103  A    between atoms: _236  and  _237
REMARK  104  A    between atoms: _237  and  _238
REMARK  105  A    between atoms: _238  and  _239
REMARK  106  A    between atoms: _248  and  _250
REMARK  107  A    between atoms: _250  and  _251
REMARK  108  A    between atoms: _250  and  _253
REMARK  109  A    between atoms: _253  and  _254
REMARK  110  A    between atoms: _257  and  _259
REMARK  111  A    between atoms: _259  and  _260
REMARK  112  A    between atoms: _262  and  _264
REMARK  113  A    between atoms: _264  and  _265
REMARK  114  A    between atoms: _264  and  _267
REMARK  115  A    between atoms: _267  and  _268
REMARK  116  A    between atoms: _271  and  _273
REMARK  117  A    between atoms: _273  and  _274
REMARK  118  A    between atoms: _273  and  _276
REMARK  119  A    between atoms: _279  and  _281
REMARK  120  A    between atoms: _281  and  _282
REMARK  121  A    between atoms: _281  and  _284
REMARK  122  A    between atoms: _284  and  _285
REMARK  123  A    between atoms: _288  and  _290
REMARK  124  A    between atoms: _290  and  _291
REMARK  125  A    between atoms: _290  and  _293
REMARK  126  A    between atoms: _293  and  _294
REMARK  127  A    between atoms: _294  and  _295
REMARK  128  A    between atoms: _295  and  _296
REMARK  129  A    between atoms: _296  and  _297
REMARK  130  A    between atoms: _301  and  _303
REMARK  131  A    between atoms: _303  and  _304
REMARK  132  A    between atoms: _303  and  _306
REMARK  133  A    between atoms: _306  and  _307
REMARK  134  A    between atoms: _307  and  _308
REMARK  135  A    between atoms: _313  and  _315
REMARK  136  A    between atoms: _315  and  _316
REMARK  137  A    between atoms: _315  and  _318
REMARK  138  A    between atoms: _318  and  _319
REMARK  139  A    between atoms: _326  and  _327
REMARK  140  A    between atoms: _332  and  _334
REMARK  141  A    between atoms: _334  and  _335
REMARK  142  A    between atoms: _334  and  _337
REMARK  143  A    between atoms: _337  and  _338
REMARK  144  A    between atoms: _348  and  _350
REMARK  145  A    between atoms: _350  and  _351
REMARK  146  A    between atoms: _354  and  _356
REMARK  147  A    between atoms: _356  and  _357
REMARK  148  A    between atoms: _356  and  _359
REMARK  149  A    between atoms: _359  and  _360
REMARK  150  A    between atoms: _363  and  _365
REMARK  151  A    between atoms: _365  and  _366
REMARK                            x       y       z     vdW  Elec       q    Type
REMARK                         _______ _______ _______ _____ _____    ______ ____
ROOT
ATOM      1  CA  ALA A   1      23.964  12.672  13.305  0.00  0.00    +0.133 C 
ATOM      2  CB  ALA A   1      24.373  12.830  11.833  0.00  0.00    +0.027 C 
ENDROOT
BRANCH   1   3
ATOM      3  N   ALA A   1      24.697  11.556  13.897  0.00  0.00    -0.239 NA
ATOM      4  H   ALA A   1      25.316  10.979  13.292  0.00  0.00    +0.142 HD
ENDBRANCH   1   3
BRANCH   1   5
ATOM      5  C   ALA A   1      22.457  12.423  13.421  0.00  0.00    +0.224 C 
ATOM      6  O   ALA A   1      21.986  11.293  13.173  0.00  0.00    -0.287 OA
ENDBRANCH   1   5
TORSDOF 2
REMARK  Name = ../refined-set-2016/4cc5/4cc5_pocket.pdb
REMARK  151 active torsions:
REMARK  status: ('A' for Active; 'I' for Inactive)
REMARK    1  A    between atoms: _1  and  _3
REMARK    2  A    between atoms: _3  and  _4
REMARK    3  A    between atoms: _3  and  _6
REMARK    4  A    between atoms: _6  and  _7
REMARK    5  A    between atoms: _7  and  _8
REMARK    6  A    between atoms: _10  and  _12
REMARK    7  A    between atoms: _12  and  _13
REMARK    8  A    between atoms: _12  and  _15
REMARK    9  A    between atoms: _15  and  _16
REMARK   10  A    between atoms: _19  and  _21
REMARK   11  A    between atoms: _21  and  _22
REMARK   12  A    between atoms: _21  and  _24
REMARK   13  A    between atoms: _24  and  _25
REMARK   14  A    between atoms: _27  and  _29
REMARK   15  A    between atoms: _29  and  _30
REMARK   16  A    between atoms: _29  and  _32
REMARK   17  A    between atoms: _32  and  _33
REMARK   18  A    between atoms: _36  and  _38
REMARK   19  A    between atoms: _38  and  _39
REMARK   20  A    between atoms: _38  and  _41
REMARK   21  A    between atoms: _41  and  _42
REMARK   22  A    between atoms: _42  and  _43
REMARK   23  A    between atoms: _45  and  _47
REMARK   24  A    between atoms: _47  and  _48
REMARK   25  A    between atoms: _47  and  _50
REMARK   26  A    between atoms: _52  and  _54
REMARK   27  A    between atoms: _54  and  _55
REMARK   28  A    between atoms: _54  and  _57
REMARK   29  A    between atoms: _57  and  _58
REMARK   30  A    between atoms: _58  and  _59
REMARK   31  A    between atoms: _62  and  _64
REMARK   32  A    between atoms: _64  and  _65
REMARK   33  A    between atoms: _64  and  _67
REMARK   34  A    between atoms: _67  and  _68
REMARK   35  A    between atoms: _71  and  _73
REMARK   36  A    between atoms: _73  and  _74
REMARK   37  A    between atoms: _73  and  _76
REMARK   38  A    between atoms: _76  and  _77
REMARK   39  A    between atoms: _77  and  _78
REMARK   40  A    between atoms: _78  and  _79
REMARK   41  A    between atoms: _79  and  _80
REMARK   42  A    between atoms: _84  and  _86
REMARK   43  A    between atoms: _86  and  _87
REMARK   44  A    between atoms: _86  and  _89
REMARK   45  A    between atoms: _89  and  _90
REMARK   46  A    between atoms: _93  and  _95
REMARK   47  A    between atoms: _95  and  _96
REMARK   48  A    between atoms: _99  and  _101
REMARK   49  A    between atoms: _101  and  _102
REMARK   50  A    between atoms: _101  and  _104
REMARK   51  A    between atoms: _104  and  _105
REMARK   52  A    between atoms: _105  and  _106
REMARK   53  A    between atoms: _106  and  _107
REMARK   54  A    between atoms: _116  and  _118
REMARK   55  A    between atoms: _118  and  _119
REMARK   56  A    between atoms: _118  and  _121
REMARK   57  A    between atoms: _121  and  _122
REMARK   58  A    between atoms: _122  and  _123
REMARK   59  A    between atoms: _123  and  _124
REMARK   60  A    between atoms: _133  and  _135
REMARK   61  A    between atoms: _135  and  _136
REMARK   62  A    between atoms: _138  and  _140
REMARK   63  A    between atoms: _140  and  _141
REMARK   64  A    between atoms: _140  and  _143
REMARK   65  A    between atoms: _143  and  _144
REMARK   66  A    between atoms: _144  and  _145
REMARK   67  A    between atoms: _148  and  _150
REMARK   68  A    between atoms: _150  and  _151
REMARK   69  A    between atoms: _150  and  _153
REMARK   70  A    between atoms: _153  and  _154
REMARK   71  A    between atoms: _160  and  _162
REMARK   72  A    between atoms: _162  and  _163
REMARK   73  A    between atoms: _162  and  _165
REMARK   74  A    between atoms: _165  and  _166
REMARK   75  A    between atoms: _169  and  _171
REMARK   76  A    between atoms: _171  and  _172
REMARK   77  A    between atoms: _171  and  _174
REMARK   78  A    between atoms: _174  and  _175
REMARK   79  A    between atoms: _180  and  _181
REMARK   80  A    between atoms: _183  and  _185
REMARK   81  A    between atoms: _185  and  _186
REMARK   82  A    between atoms: _185  and  _188
REMARK   83  A    between atoms: _188  and  _189
REMARK   84  A    between atoms: _191  and  _193
REMARK   85  A    between atoms: _193  and  _194
REMARK   86  A    between atoms: _193  and  _196
REMARK   87  A    between atoms: _199  and  _201
REMARK   88  A    between atoms: _201  and  _202
REMARK   89  A    between atoms: _201  and  _204
REMARK   90  A    between atoms: _204  and  _205
REMARK   91  A    between atoms: _205  and  _206
REMARK   92  A    between atoms: _211  and  _213
REMARK   93  A    between atoms: _213  and  _214
REMARK   94  A    between atoms: _213  and  _216
REMARK   95  A    between atoms: _216  and  _217
REMARK   96  A    between atoms: _220  and  _222
REMARK   97  A    between atoms: _222  and  _223
REMARK   98  A    between atoms: _222  and  _225
REMARK   99  A    between atoms: _225  and  _226
REMARK  100  A    between atoms: _231  and  _233
REMARK  101  A    between atoms: _233  and  _234
REMARK  102  A    between atoms: _233  and  _236
REMARK  103  A    between atoms: _236  and  _237
REMARK  104  A    between atoms: _237  and  _238
REMARK  105  A    between atoms: _238  and  _239
REMARK  106  A    between atoms: _248  and  _250
REMARK  107  A    between atoms: _250  and  _251
REMARK  108  A    between atoms: _250  and  _253
REMARK  109  A    between atoms: _253  and  _254
REMARK  110  A    between atoms: _257  and  _259
REMARK  111  A    between atoms: _259  and  _260
REMARK  112  A    between atoms: _262  and  _264
REMARK  113  A    between atoms: _264  and  _265
REMARK  114  A    between atoms: _264  and  _267
REMARK  115  A    between atoms: _267  and  _268
REMARK  116  A    between atoms: _271  and  _273
REMARK  117  A    between atoms: _273  and  _274
REMARK  118  A    between atoms: _273  and  _276
REMARK  119  A    between atoms: _279  and  _281
REMARK  120  A    between atoms: _281  and  _282
REMARK  121  A    between atoms: _281  and  _284
REMARK  122  A    between atoms: _284  and  _285
REMARK  123  A    between atoms: _288  and  _290
REMARK  124  A    between atoms: _290  and  _291
REMARK  125  A    between atoms: _290  and  _293
REMARK  126  A    between atoms: _293  and  _294
REMARK  127  A    between atoms: _294  and  _295
REMARK  128  A    between atoms: _295  and  _296
REMARK  129  A    between atoms: _296  and  _297
REMARK  130  A    between atoms: _301  and  _303
REMARK  131  A    between atoms: _303  and  _304
REMARK  132  A    between atoms: _303  and  _306
REMARK  133  A    between atoms: _306  and  _307
REMARK  134  A    between atoms: _307  and  _308
REMARK  135  A    between atoms: _313  and  _315
REMARK  136  A    between atoms: _315  and  _316
REMARK  137  A    between atoms: _315  and  _318
REMARK  138  A    between atoms: _318  and  _319
REMARK  139  A    between atoms: _326  and  _327
REMARK  140  A    between atoms: _332  and  _334
REMARK  141  A    between atoms: _334  and  _335
REMARK  142  A    between atoms: _334  and  _337
REMARK  143  A    between atoms: _337  and  _338
REMARK  144  A    between atoms: _348  and  _350
REMARK  145  A    between atoms: _350  and  _351
REMARK  146  A    between atoms: _354  and  _356
REMARK  147  A    between atoms: _356  and  _357
REMARK  148  A    between atoms: _356  and  _359
REMARK  149  A    between atoms: _359  and  _360
REMARK  150  A    between atoms: _363  and  _365
REMARK  151  A    between atoms: _365  and  _366
REMARK                            x       y       z     vdW  Elec       q    Type
REMARK                         _______ _______ _______ _____ _____    ______ ____
ROOT
ATOM      1  NE  ARG A   1      23.849  12.553   6.629  0.00  0.00    -0.265 N 
ATOM      2  HE  ARG A   1      23.786  11.661   6.098  0.00  0.00    +0.259 HD
ATOM      3  CZ  ARG A   1      24.058  13.642   5.920  0.00  0.00    +0.342 C 
ATOM      4  NH2 ARG A   1      24.160  14.839   6.504  0.00  0.00    -0.292 N 
ATOM      5 HH21 ARG A   1      24.074  14.923   7.537  0.00  0.00    +0.255 HD
ATOM      6 HH22 ARG A   1      24.325  15.687   5.926  0.00  0.00    +0.255 HD
ATOM      7  NH1 ARG A   1      24.168  13.507   4.594  0.00  0.00    -0.292 N 
ATOM      8 HH11 ARG A   1      24.088  12.566   4.159  0.00  0.00    +0.255 HD
ATOM      9 HH12 ARG A   1      24.333  14.343   3.998  0.00  0.00    +0.255 HD
ENDROOT
BRANCH   1  10
ATOM     10  CD  ARG A   1      23.697  12.459   8.061  0.00  0.00    +0.174 C 
BRANCH  10  11
ATOM     11  CG  ARG A   1      22.320  11.830   8.172  0.00  0.00    +0.045 C 
BRANCH  11  12
ATOM     12  CB  ARG A   1      21.948  11.296   9.523  0.00  0.00    +0.029 C 
BRANCH  12  13
ATOM     13  CA  ARG A   1      20.514  10.764   9.574  0.00  0.00    +0.133 C 
BRANCH  13  14
ATOM     14  N   ARG A   1      20.265  10.143  10.887  0.00  0.00    -0.239 NA
ATOM     15  H   ARG A   1      21.056  10.001  11.547  0.00  0.00    +0.142 HD
ENDBRANCH  13  14
BRANCH  13  16
ATOM     16  C   ARG A   1      20.226   9.759   8.452  0.00  0.00    +0.224 C 
ATOM     17  O   ARG A   1      19.677  10.107   7.398  0.00  0.00    -0.287 OA
ENDBRANCH  13  16
ENDBRANCH  12  13
ENDBRANCH  11  12
ENDBRANCH  10  11
ENDBRANCH   1  10
TORSDOF 6
REMARK  Name = ../refined-set-2016/4cc5/4cc5_pocket.pdb
REMARK  151 active torsions:
REMARK  status: ('A' for Active; 'I' for Inactive)
REMARK    1  A    between atoms: _1  and  _3
REMARK    2  A    between atoms: _3  and  _4
REMARK    3  A    between atoms: _3  and  _6
REMARK    4  A    between atoms: _6  and  _7
REMARK    5  A    between atoms: _7  and  _8
REMARK    6  A    between atoms: _10  and  _12
REMARK    7  A    between atoms: _12  and  _13
REMARK    8  A    between atoms: _12  and  _15
REMARK    9  A    between atoms: _15  and  _16
REMARK   10  A    between atoms: _19  and  _21
REMARK   11  A    between atoms: _21  and  _22
REMARK   12  A    between atoms: _21  and  _24
REMARK   13  A    between atoms: _24  and  _25
REMARK   14  A    between atoms: _27  and  _29
REMARK   15  A    between atoms: _29  and  _30
REMARK   16  A    between atoms: _29  and  _32
REMARK   17  A    between atoms: _32  and  _33
REMARK   18  A    between atoms: _36  and  _38
REMARK   19  A    between atoms: _38  and  _39
REMARK   20  A    between atoms: _38  and  _41
REMARK   21  A    between atoms: _41  and  _42
REMARK   22  A    between atoms: _42  and  _43
REMARK   23  A    between atoms: _45  and  _47
REMARK   24  A    between atoms: _47  and  _48
REMARK   25  A    between atoms: _47  and  _50
REMARK   26  A    between atoms: _52  and  _54
REMARK   27  A    between atoms: _54  and  _55
REMARK   28  A    between atoms: _54  and  _57
REMARK   29  A    between atoms: _57  and  _58
REMARK   30  A    between atoms: _58  and  _59
REMARK   31  A    between atoms: _62  and  _64
REMARK   32  A    between atoms: _64  and  _65
REMARK   33  A    between atoms: _64  and  _67
REMARK   34  A    between atoms: _67  and  _68
REMARK   35  A    between atoms: _71  and  _73
REMARK   36  A    between atoms: _73  and  _74
REMARK   37  A    between atoms: _73  and  _76
REMARK   38  A    between atoms: _76  and  _77
REMARK   39  A    between atoms: _77  and  _78
REMARK   40  A    between atoms: _78  and  _79
REMARK   41  A    between atoms: _79  and  _80
REMARK   42  A    between atoms: _84  and  _86
REMARK   43  A    between atoms: _86  and  _87
REMARK   44  A    between atoms: _86  and  _89
REMARK   45  A    between atoms: _89  and  _90
REMARK   46  A    between atoms: _93  and  _95
REMARK   47  A    between atoms: _95  and  _96
REMARK   48  A    between atoms: _99  and  _101
REMARK   49  A    between atoms: _101  and  _102
REMARK   50  A    between atoms: _101  and  _104
REMARK   51  A    between atoms: _104  and  _105
REMARK   52  A    between atoms: _105  and  _106
REMARK   53  A    between atoms: _106  and  _107
REMARK   54  A    between atoms: _116  and  _118
REMARK   55  A    between atoms: _118  and  _119
REMARK   56  A    between atoms: _118  and  _121
REMARK   57  A    between atoms: _121  and  _122
REMARK   58  A    between atoms: _122  and  _123
REMARK   59  A    between atoms: _123  and  _124
REMARK   60  A    between atoms: _133  and  _135
REMARK   61  A    between atoms: _135  and  _136
REMARK   62  A    between atoms: _138  and  _140
REMARK   63  A    between atoms: _140  and  _141
REMARK   64  A    between atoms: _140  and  _143
REMARK   65  A    between atoms: _143  and  _144
REMARK   66  A    between atoms: _144  and  _145
REMARK   67  A    between atoms: _148  and  _150
REMARK   68  A    between atoms: _150  and  _151
REMARK   69  A    between atoms: _150  and  _153
REMARK   70  A    between atoms: _153  and  _154
REMARK   71  A    between atoms: _160  and  _162
REMARK   72  A    between atoms: _162  and  _163
REMARK   73  A    between atoms: _162  and  _165
REMARK   74  A    between atoms: _165  and  _166
REMARK   75  A    between atoms: _169  and  _171
REMARK   76  A    between atoms: _171  and  _172
REMARK   77  A    between atoms: _171  and  _174
REMARK   78  A    between atoms: _174  and  _175
REMARK   79  A    between atoms: _180  and  _181
REMARK   80  A    between atoms: _183  and  _185
REMARK   81  A    between atoms: _185  and  _186
REMARK   82  A    between atoms: _185  and  _188
REMARK   83  A    between atoms: _188  and  _189
REMARK   84  A    between atoms: _191  and  _193
REMARK   85  A    between atoms: _193  and  _194
REMARK   86  A    between atoms: _193  and  _196
REMARK   87  A    between atoms: _199  and  _201
REMARK   88  A    between atoms: _201  and  _202
REMARK   89  A    between atoms: _201  and  _204
REMARK   90  A    between atoms: _204  and  _205
REMARK   91  A    between atoms: _205  and  _206
REMARK   92  A    between atoms: _211  and  _213
REMARK   93  A    between atoms: _213  and  _214
REMARK   94  A    between atoms: _213  and  _216
REMARK   95  A    between atoms: _216  and  _217
REMARK   96  A    between atoms: _220  and  _222
REMARK   97  A    between atoms: _222  and  _223
REMARK   98  A    between atoms: _222  and  _225
REMARK   99  A    between atoms: _225  and  _226
REMARK  100  A    between atoms: _231  and  _233
REMARK  101  A    between atoms: _233  and  _234
REMARK  102  A    between atoms: _233  and  _236
REMARK  103  A    between atoms: _236  and  _237
REMARK  104  A    between atoms: _237  and  _238
REMARK  105  A    between atoms: _238  and  _239
REMARK  106  A    between atoms: _248  and  _250
REMARK  107  A    between atoms: _250  and  _251
REMARK  108  A    between atoms: _250  and  _253
REMARK  109  A    between atoms: _253  and  _254
REMARK  110  A    between atoms: _257  and  _259
REMARK  111  A    between atoms: _259  and  _260
REMARK  112  A    between atoms: _262  and  _264
REMARK  113  A    between atoms: _264  and  _265
REMARK  114  A    between atoms: _264  and  _267
REMARK  115  A    between atoms: _267  and  _268
REMARK  116  A    between atoms: _271  and  _273
REMARK  117  A    between atoms: _273  and  _274
REMARK  118  A    between atoms: _273  and  _276
REMARK  119  A    between atoms: _279  and  _281
REMARK  120  A    between atoms: _281  and  _282
REMARK  121  A    between atoms: _281  and  _284
REMARK  122  A    between atoms: _284  and  _285
REMARK  123  A    between atoms: _288  and  _290
REMARK  124  A    between atoms: _290  and  _291
REMARK  125  A    between atoms: _290  and  _293
REMARK  126  A    between atoms: _293  and  _294
REMARK  127  A    between atoms: _294  and  _295
REMARK  128  A    between atoms: _295  and  _296
REMARK  129  A    between atoms: _296  and  _297
REMARK  130  A    between atoms: _301  and  _303
REMARK  131  A    between atoms: _303  and  _304
REMARK  132  A    between atoms: _303  and  _306
REMARK  133  A    between atoms: _306  and  _307
REMARK  134  A    between atoms: _307  and  _308
REMARK  135  A    between atoms: _313  and  _315
REMARK  136  A    between atoms: _315  and  _316
REMARK  137  A    between atoms: _315  and  _318
REMARK  138  A    between atoms: _318  and  _319
REMARK  139  A    between atoms: _326  and  _327
REMARK  140  A    between atoms: _332  and  _334
REMARK  141  A    between atoms: _334  and  _335
REMARK  142  A    between atoms: _334  and  _337
REMARK  143  A    between atoms: _337  and  _338
REMARK  144  A    between atoms: _348  and  _350
REMARK  145  A    between atoms: _350  and  _351
REMARK  146  A    between atoms: _354  and  _356
REMARK  147  A    between atoms: _356  and  _357
REMARK  148  A    between atoms: _356  and  _359
REMARK  149  A    between atoms: _359  and  _360
REMARK  150  A    between atoms: _363  and  _365
REMARK  151  A    between atoms: _365  and  _366
REMARK                            x       y       z     vdW  Elec       q    Type
REMARK                         _______ _______ _______ _____ _____    ______ ____
ROOT
ATOM      1  C   ARG A   1      21.287  19.115  14.092  0.00  0.00    +0.238 C 
ATOM      2  N   GLY A   2      21.677  17.950  14.588  0.00  0.00    -0.296 N 
ATOM      3  H   GLY A   2      21.321  17.072  14.159  0.00  0.00    +0.150 HD
ATOM      4  O   ARG A   1      21.751  20.191  14.466  0.00  0.00    -0.274 OA
ENDROOT
BRANCH   1   5
ATOM      5  CA  ARG A   1      20.215  19.042  13.016  0.00  0.00    +0.145 C 
BRANCH   5   6
ATOM      6  N   ARG A   1      19.229  20.107  13.240  0.00  0.00    -0.238 NA
ATOM      7  H   ARG A   1      19.559  21.092  13.296  0.00  0.00    +0.142 HD
ENDBRANCH   5   6
BRANCH   5   8
ATOM      8  CB  ARG A   1      20.866  19.193  11.661  0.00  0.00    +0.030 C 
BRANCH   8   9
ATOM      9  CG  ARG A   1      19.909  19.039  10.528  0.00  0.00    +0.045 C 
BRANCH   9  10
ATOM     10  CD  ARG A   1      19.485  20.362   9.928  0.00  0.00    +0.174 C 
BRANCH  10  11
ATOM     11  NE  ARG A   1      19.110  20.023   8.573  0.00  0.00    -0.265 N 
ATOM     12  CZ  ARG A   1      17.986  19.386   8.225  0.00  0.00    +0.342 C 
ATOM     13  NH2 ARG A   1      17.091  19.004   9.115  0.00  0.00    -0.292 N 
ATOM     14 HH21 ARG A   1      17.247  19.196  10.125  0.00  0.00    +0.255 HD
ATOM     15 HH22 ARG A   1      16.229  18.511   8.807  0.00  0.00    +0.255 HD
ATOM     16  NH1 ARG A   1      17.755  19.130   6.967  0.00  0.00    -0.292 N 
ATOM     17 HH11 ARG A   1      16.884  18.635   6.688  0.00  0.00    +0.255 HD
ATOM     18 HH12 ARG A   1      18.442  19.421   6.242  0.00  0.00    +0.255 HD
ATOM     19  HE  ARG A   1      19.764  20.295   7.811  0.00  0.00    +0.259 HD
ENDBRANCH  10  11
ENDBRANCH   9  10
ENDBRANCH   8   9
ENDBRANCH   5   8
ENDBRANCH   1   5
BRANCH   2  20
ATOM     20  CA  GLY A   2      22.567  17.871  15.688  0.00  0.00    +0.176 C 
BRANCH  20  21
ATOM     21  C   GLY A   2      23.309  16.551  15.674  0.00  0.00    +0.243 C 
ATOM     22  N   GLU A   3      24.297  16.453  16.571  0.00  0.00    -0.298 N 
ATOM     23  H   GLU A   3      24.573  17.307  17.096  0.00  0.00    +0.150 HD
ATOM     24  O   GLY A   2      22.985  15.656  14.867  0.00  0.00    -0.273 OA
BRANCH  22  25
ATOM     25  CA  GLU A   3      25.000  15.222  16.848  0.00  0.00    +0.137 C 
BRANCH  25  26
ATOM     26  C   GLU A   3      24.679  14.784  18.248  0.00  0.00    +0.227 C 
ATOM     27  O   GLU A   3      24.926  15.531  19.193  0.00  0.00    -0.286 OA
ENDBRANCH  25  26
BRANCH  25  28
ATOM     28  CB  GLU A   3      26.493  15.436  16.738  0.00  0.00    +0.039 C 
BRANCH  28  29
ATOM     29  CG  GLU A   3      26.987  15.725  15.329  0.00  0.00    +0.116 C 
BRANCH  29  30
ATOM     30  CD  GLU A   3      27.181  14.470  14.530  0.00  0.00    +0.365 C 
ATOM     31  OE2 GLU A   3      27.709  13.475  15.086  0.00  0.00    -0.246 OA
ATOM     32  OE1 GLU A   3      26.805  14.480  13.347  0.00  0.00    -0.246 OA
ENDBRANCH  29  30
ENDBRANCH  28  29
ENDBRANCH  25  28
ENDBRANCH  22  25
ENDBRANCH  20  21
ENDBRANCH   2  20
TORSDOF 13
REMARK  Name = ../refined-set-2016/4cc5/4cc5_pocket.pdb
REMARK  151 active torsions:
REMARK  status: ('A' for Active; 'I' for Inactive)
REMARK    1  A    between atoms: _1  and  _3
REMARK    2  A    between atoms: _3  and  _4
REMARK    3  A    between atoms: _3  and  _6
REMARK    4  A    between atoms: _6  and  _7
REMARK    5  A    between atoms: _7  and  _8
REMARK    6  A    between atoms: _10  and  _12
REMARK    7  A    between atoms: _12  and  _13
REMARK    8  A    between atoms: _12  and  _15
REMARK    9  A    between atoms: _15  and  _16
REMARK   10  A    between atoms: _19  and  _21
REMARK   11  A    between atoms: _21  and  _22
REMARK   12  A    between atoms: _21  and  _24
REMARK   13  A    between atoms: _24  and  _25
REMARK   14  A    between atoms: _27  and  _29
REMARK   15  A    between atoms: _29  and  _30
REMARK   16  A    between atoms: _29  and  _32
REMARK   17  A    between atoms: _32  and  _33
REMARK   18  A    between atoms: _36  and  _38
REMARK   19  A    between atoms: _38  and  _39
REMARK   20  A    between atoms: _38  and  _41
REMARK   21  A    between atoms: _41  and  _42
REMARK   22  A    between atoms: _42  and  _43
REMARK   23  A    between atoms: _45  and  _47
REMARK   24  A    between atoms: _47  and  _48
REMARK   25  A    between atoms: _47  and  _50
REMARK   26  A    between atoms: _52  and  _54
REMARK   27  A    between atoms: _54  and  _55
REMARK   28  A    between atoms: _54  and  _57
REMARK   29  A    between atoms: _57  and  _58
REMARK   30  A    between atoms: _58  and  _59
REMARK   31  A    between atoms: _62  and  _64
REMARK   32  A    between atoms: _64  and  _65
REMARK   33  A    between atoms: _64  and  _67
REMARK   34  A    between atoms: _67  and  _68
REMARK   35  A    between atoms: _71  and  _73
REMARK   36  A    between atoms: _73  and  _74
REMARK   37  A    between atoms: _73  and  _76
REMARK   38  A    between atoms: _76  and  _77
REMARK   39  A    between atoms: _77  and  _78
REMARK   40  A    between atoms: _78  and  _79
REMARK   41  A    between atoms: _79  and  _80
REMARK   42  A    between atoms: _84  and  _86
REMARK   43  A    between atoms: _86  and  _87
REMARK   44  A    between atoms: _86  and  _89
REMARK   45  A    between atoms: _89  and  _90
REMARK   46  A    between atoms: _93  and  _95
REMARK   47  A    between atoms: _95  and  _96
REMARK   48  A    between atoms: _99  and  _101
REMARK   49  A    between atoms: _101  and  _102
REMARK   50  A    between atoms: _101  and  _104
REMARK   51  A    between atoms: _104  and  _105
REMARK   52  A    between atoms: _105  and  _106
REMARK   53  A    between atoms: _106  and  _107
REMARK   54  A    between atoms: _116  and  _118
REMARK   55  A    between atoms: _118  and  _119
REMARK   56  A    between atoms: _118  and  _121
REMARK   57  A    between atoms: _121  and  _122
REMARK   58  A    between atoms: _122  and  _123
REMARK   59  A    between atoms: _123  and  _124
REMARK   60  A    between atoms: _133  and  _135
REMARK   61  A    between atoms: _135  and  _136
REMARK   62  A    between atoms: _138  and  _140
REMARK   63  A    between atoms: _140  and  _141
REMARK   64  A    between atoms: _140  and  _143
REMARK   65  A    between atoms: _143  and  _144
REMARK   66  A    between atoms: _144  and  _145
REMARK   67  A    between atoms: _148  and  _150
REMARK   68  A    between atoms: _150  and  _151
REMARK   69  A    between atoms: _150  and  _153
REMARK   70  A    between atoms: _153  and  _154
REMARK   71  A    between atoms: _160  and  _162
REMARK   72  A    between atoms: _162  and  _163
REMARK   73  A    between atoms: _162  and  _165
REMARK   74  A    between atoms: _165  and  _166
REMARK   75  A    between atoms: _169  and  _171
REMARK   76  A    between atoms: _171  and  _172
REMARK   77  A    between atoms: _171  and  _174
REMARK   78  A    between atoms: _174  and  _175
REMARK   79  A    between atoms: _180  and  _181
REMARK   80  A    between atoms: _183  and  _185
REMARK   81  A    between atoms: _185  and  _186
REMARK   82  A    between atoms: _185  and  _188
REMARK   83  A    between atoms: _188  and  _189
REMARK   84  A    between atoms: _191  and  _193
REMARK   85  A    between atoms: _193  and  _194
REMARK   86  A    between atoms: _193  and  _196
REMARK   87  A    between atoms: _199  and  _201
REMARK   88  A    between atoms: _201  and  _202
REMARK   89  A    between atoms: _201  and  _204
REMARK   90  A    between atoms: _204  and  _205
REMARK   91  A    between atoms: _205  and  _206
REMARK   92  A    between atoms: _211  and  _213
REMARK   93  A    between atoms: _213  and  _214
REMARK   94  A    between atoms: _213  and  _216
REMARK   95  A    between atoms: _216  and  _217
REMARK   96  A    between atoms: _220  and  _222
REMARK   97  A    between atoms: _222  and  _223
REMARK   98  A    between atoms: _222  and  _225
REMARK   99  A    between atoms: _225  and  _226
REMARK  100  A    between atoms: _231  and  _233
REMARK  101  A    between atoms: _233  and  _234
REMARK  102  A    between atoms: _233  and  _236
REMARK  103  A    between atoms: _236  and  _237
REMARK  104  A    between atoms: _237  and  _238
REMARK  105  A    between atoms: _238  and  _239
REMARK  106  A    between atoms: _248  and  _250
REMARK  107  A    between atoms: _250  and  _251
REMARK  108  A    between atoms: _250  and  _253
REMARK  109  A    between atoms: _253  and  _254
REMARK  110  A    between atoms: _257  and  _259
REMARK  111  A    between atoms: _259  and  _260
REMARK  112  A    between atoms: _262  and  _264
REMARK  113  A    between atoms: _264  and  _265
REMARK  114  A    between atoms: _264  and  _267
REMARK  115  A    between atoms: _267  and  _268
REMARK  116  A    between atoms: _271  and  _273
REMARK  117  A    between atoms: _273  and  _274
REMARK  118  A    between atoms: _273  and  _276
REMARK  119  A    between atoms: _279  and  _281
REMARK  120  A    between atoms: _281  and  _282
REMARK  121  A    between atoms: _281  and  _284
REMARK  122  A    between atoms: _284  and  _285
REMARK  123  A    between atoms: _288  and  _290
REMARK  124  A    between atoms: _290  and  _291
REMARK  125  A    between atoms: _290  and  _293
REMARK  126  A    between atoms: _293  and  _294
REMARK  127  A    between atoms: _294  and  _295
REMARK  128  A    between atoms: _295  and  _296
REMARK  129  A    between atoms: _296  and  _297
REMARK  130  A    between atoms: _301  and  _303
REMARK  131  A    between atoms: _303  and  _304
REMARK  132  A    between atoms: _303  and  _306
REMARK  133  A    between atoms: _306  and  _307
REMARK  134  A    between atoms: _307  and  _308
REMARK  135  A    between atoms: _313  and  _315
REMARK  136  A    between atoms: _315  and  _316
REMARK  137  A    between atoms: _315  and  _318
REMARK  138  A    between atoms: _318  and  _319
REMARK  139  A    between atoms: _326  and  _327
REMARK  140  A    between atoms: _332  and  _334
REMARK  141  A    between atoms: _334  and  _335
REMARK  142  A    between atoms: _334  and  _337
REMARK  143  A    between atoms: _337  and  _338
REMARK  144  A    between atoms: _348  and  _350
REMARK  145  A    between atoms: _350  and  _351
REMARK  146  A    between atoms: _354  and  _356
REMARK  147  A    between atoms: _356  and  _357
REMARK  148  A    between atoms: _356  and  _359
REMARK  149  A    between atoms: _359  and  _360
REMARK  150  A    between atoms: _363  and  _365
REMARK  151  A    between atoms: _365  and  _366
REMARK                            x       y       z     vdW  Elec       q    Type
REMARK                         _______ _______ _______ _____ _____    ______ ____
ROOT
ATOM      1  CA  TYR A   3      24.493  22.910  14.687  0.00  0.00    +0.153 C 
ENDROOT
BRANCH   1   4
ATOM      2  C   ILE A   2      23.567  22.250  16.849  0.00  0.00    +0.241 C 
ATOM      3  O   ILE A   2      24.137  23.162  17.456  0.00  0.00    -0.273 OA
ATOM      4  N   TYR A   3      23.636  22.066  15.530  0.00  0.00    -0.297 N 
ATOM      5  H   TYR A   3      23.072  21.311  15.090  0.00  0.00    +0.150 HD
BRANCH   2   6
ATOM      6  CA  ILE A   2      22.732  21.265  17.620  0.00  0.00    +0.148 C 
BRANCH   6   8
ATOM      7  C   PHE A   1      24.203  19.814  18.868  0.00  0.00    +0.239 C 
ATOM      8  N   ILE A   2      23.498  20.918  18.804  0.00  0.00    -0.297 N 
ATOM      9  H   ILE A   2      23.487  21.561  19.621  0.00  0.00    +0.150 HD
ATOM     10  O   PHE A   1      24.295  19.006  17.921  0.00  0.00    -0.274 OA
BRANCH   7  11
ATOM     11  CA  PHE A   1      24.912  19.572  20.174  0.00  0.00    +0.149 C 
BRANCH  11  12
ATOM     12  N   PHE A   1      24.601  18.215  20.575  0.00  0.00    -0.238 NA
ATOM     13  H   PHE A   1      24.735  17.447  19.887  0.00  0.00    +0.142 HD
ENDBRANCH  11  12
BRANCH  11  14
ATOM     14  CB  PHE A   1      26.414  19.765  19.964  0.00  0.00    +0.053 C 
BRANCH  14  15
ATOM     15  CG  PHE A   1      27.216  19.859  21.246  0.00  0.00    -0.020 A 
ATOM     16  CD2 PHE A   1      27.001  20.889  22.145  0.00  0.00    -0.004 A 
ATOM     17  CE2 PHE A   1      27.739  20.969  23.315  0.00  0.00    -0.000 A 
ATOM     18  CZ  PHE A   1      28.703  20.017  23.598  0.00  0.00    -0.000 A 
ATOM     19  CE1 PHE A   1      28.923  18.986  22.703  0.00  0.00    -0.000 A 
ATOM     20  CD1 PHE A   1      28.186  18.911  21.541  0.00  0.00    -0.004 A 
ENDBRANCH  14  15
ENDBRANCH  11  14
ENDBRANCH   7  11
ENDBRANCH   6   8
BRANCH   6  21
ATOM     21  CB  ILE A   2      21.402  21.925  18.044  0.00  0.00    +0.027 C 
ATOM     22  CG2 ILE A   2      20.597  22.402  16.843  0.00  0.00    +0.002 C 
BRANCH  21  23
ATOM     23  CG1 ILE A   2      20.640  20.958  18.939  0.00  0.00    +0.002 C 
ATOM     24  CD1 ILE A   2      20.402  19.589  18.344  0.00  0.00    +0.000 C 
ENDBRANCH  21  23
ENDBRANCH   6  21
ENDBRANCH   2   6
ENDBRANCH   1   4
BRANCH   1  25
ATOM     25  C   TYR A   3      23.773  23.653  13.566  0.00  0.00    +0.241 C 
ATOM     26  N   SER A   4      22.549  23.248  13.221  0.00  0.00    -0.295 N 
ATOM     27  H   SER A   4      22.137  22.413  13.683  0.00  0.00    +0.150 HD
ATOM     28  O   TYR A   3      24.337  24.589  13.018  0.00  0.00    -0.273 OA
BRANCH  26  29
ATOM     29  CA  SER A   4      21.780  23.960  12.204  0.00  0.00    +0.178 C 
BRANCH  29  30
ATOM     30  C   SER A   4      20.299  23.649  12.229  0.00  0.00    +0.243 C 
ATOM     31  O   SER A   4      19.815  22.934  13.107  0.00  0.00    -0.273 OA
ATOM     32  N   VAL A   5      19.604  24.207  11.240  0.00  0.00    -0.298 N 
ATOM     33  H   VAL A   5      20.106  24.808  10.556  0.00  0.00    +0.150 HD
BRANCH  32  34
ATOM     34  CA  VAL A   5      18.172  24.012  11.075  0.00  0.00    +0.137 C 
BRANCH  34  35
ATOM     35  CB  VAL A   5      17.401  25.192  11.712  0.00  0.00    +0.026 C 
ATOM     36  CG2 VAL A   5      15.911  24.911  11.743  0.00  0.00    +0.002 C 
ATOM     37  CG1 VAL A   5      17.693  26.492  10.981  0.00  0.00    +0.002 C 
ENDBRANCH  34  35
BRANCH  34  38
ATOM     38  C   VAL A   5      17.860  23.887   9.594  0.00  0.00    +0.227 C 
ATOM     39  O   VAL A   5      18.581  24.453   8.759  0.00  0.00    -0.286 OA
ENDBRANCH  34  38
ENDBRANCH  32  34
ENDBRANCH  29  30
BRANCH  29  40
ATOM     40  CB  SER A   4      22.290  23.649  10.804  0.00  0.00    +0.166 C 
BRANCH  40  41
ATOM     41  OG  SER A   4      22.089  24.788  10.025  0.00  0.00    -0.380 OA
ATOM     42  H   SER A   4      22.412  24.618   9.105  0.00  0.00    +0.211 HD
ENDBRANCH  40  41
ENDBRANCH  29  40
ENDBRANCH  26  29
ENDBRANCH   1  25
BRANCH   1  43
ATOM     43  CB  TYR A   3      25.663  22.121  14.103  0.00  0.00    +0.055 C 
BRANCH  43  44
ATOM     44  CG  TYR A   3      25.288  20.946  13.237  0.00  0.00    -0.020 A 
ATOM     45  CD2 TYR A   3      25.391  19.647  13.739  0.00  0.00    -0.001 A 
ATOM     46  CE2 TYR A   3      25.054  18.557  12.965  0.00  0.00    +0.036 A 
ATOM     47  CZ  TYR A   3      24.605  18.753  11.664  0.00  0.00    +0.134 A 
ATOM     48  CE1 TYR A   3      24.493  20.041  11.135  0.00  0.00    +0.036 A 
ATOM     49  CD1 TYR A   3      24.832  21.121  11.919  0.00  0.00    -0.001 A 
BRANCH  47  50
ATOM     50  OH  TYR A   3      24.270  17.671  10.892  0.00  0.00    -0.506 OA
ATOM     51  HH  TYR A   3      23.973  17.983  10.001  0.00  0.00    +0.292 HD
ENDBRANCH  47  50
ENDBRANCH  43  44
ENDBRANCH   1  43
TORSDOF 20
REMARK  Name = ../refined-set-2016/4cc5/4cc5_pocket.pdb
REMARK  151 active torsions:
REMARK  status: ('A' for Active; 'I' for Inactive)
REMARK    1  A    between atoms: _1  and  _3
REMARK    2  A    between atoms: _3  and  _4
REMARK    3  A    between atoms: _3  and  _6
REMARK    4  A    between atoms: _6  and  _7
REMARK    5  A    between atoms: _7  and  _8
REMARK    6  A    between atoms: _10  and  _12
REMARK    7  A    between atoms: _12  and  _13
REMARK    8  A    between atoms: _12  and  _15
REMARK    9  A    between atoms: _15  and  _16
REMARK   10  A    between atoms: _19  and  _21
REMARK   11  A    between atoms: _21  and  _22
REMARK   12  A    between atoms: _21  and  _24
REMARK   13  A    between atoms: _24  and  _25
REMARK   14  A    between atoms: _27  and  _29
REMARK   15  A    between atoms: _29  and  _30
REMARK   16  A    between atoms: _29  and  _32
REMARK   17  A    between atoms: _32  and  _33
REMARK   18  A    between atoms: _36  and  _38
REMARK   19  A    between atoms: _38  and  _39
REMARK   20  A    between atoms: _38  and  _41
REMARK   21  A    between atoms: _41  and  _42
REMARK   22  A    between atoms: _42  and  _43
REMARK   23  A    between atoms: _45  and  _47
REMARK   24  A    between atoms: _47  and  _48
REMARK   25  A    between atoms: _47  and  _50
REMARK   26  A    between atoms: _52  and  _54
REMARK   27  A    between atoms: _54  and  _55
REMARK   28  A    between atoms: _54  and  _57
REMARK   29  A    between atoms: _57  and  _58
REMARK   30  A    between atoms: _58  and  _59
REMARK   31  A    between atoms: _62  and  _64
REMARK   32  A    between atoms: _64  and  _65
REMARK   33  A    between atoms: _64  and  _67
REMARK   34  A    between atoms: _67  and  _68
REMARK   35  A    between atoms: _71  and  _73
REMARK   36  A    between atoms: _73  and  _74
REMARK   37  A    between atoms: _73  and  _76
REMARK   38  A    between atoms: _76  and  _77
REMARK   39  A    between atoms: _77  and  _78
REMARK   40  A    between atoms: _78  and  _79
REMARK   41  A    between atoms: _79  and  _80
REMARK   42  A    between atoms: _84  and  _86
REMARK   43  A    between atoms: _86  and  _87
REMARK   44  A    between atoms: _86  and  _89
REMARK   45  A    between atoms: _89  and  _90
REMARK   46  A    between atoms: _93  and  _95
REMARK   47  A    between atoms: _95  and  _96
REMARK   48  A    between atoms: _99  and  _101
REMARK   49  A    between atoms: _101  and  _102
REMARK   50  A    between atoms: _101  and  _104
REMARK   51  A    between atoms: _104  and  _105
REMARK   52  A    between atoms: _105  and  _106
REMARK   53  A    between atoms: _106  and  _107
REMARK   54  A    between atoms: _116  and  _118
REMARK   55  A    between atoms: _118  and  _119
REMARK   56  A    between atoms: _118  and  _121
REMARK   57  A    between atoms: _121  and  _122
REMARK   58  A    between atoms: _122  and  _123
REMARK   59  A    between atoms: _123  and  _124
REMARK   60  A    between atoms: _133  and  _135
REMARK   61  A    between atoms: _135  and  _136
REMARK   62  A    between atoms: _138  and  _140
REMARK   63  A    between atoms: _140  and  _141
REMARK   64  A    between atoms: _140  and  _143
REMARK   65  A    between atoms: _143  and  _144
REMARK   66  A    between atoms: _144  and  _145
REMARK   67  A    between atoms: _148  and  _150
REMARK   68  A    between atoms: _150  and  _151
REMARK   69  A    between atoms: _150  and  _153
REMARK   70  A    between atoms: _153  and  _154
REMARK   71  A    between atoms: _160  and  _162
REMARK   72  A    between atoms: _162  and  _163
REMARK   73  A    between atoms: _162  and  _165
REMARK   74  A    between atoms: _165  and  _166
REMARK   75  A    between atoms: _169  and  _171
REMARK   76  A    between atoms: _171  and  _172
REMARK   77  A    between atoms: _171  and  _174
REMARK   78  A    between atoms: _174  and  _175
REMARK   79  A    between atoms: _180  and  _181
REMARK   80  A    between atoms: _183  and  _185
REMARK   81  A    between atoms: _185  and  _186
REMARK   82  A    between atoms: _185  and  _188
REMARK   83  A    between atoms: _188  and  _189
REMARK   84  A    between atoms: _191  and  _193
REMARK   85  A    between atoms: _193  and  _194
REMARK   86  A    between atoms: _193  and  _196
REMARK   87  A    between atoms: _199  and  _201
REMARK   88  A    between atoms: _201  and  _202
REMARK   89  A    between atoms: _201  and  _204
REMARK   90  A    between atoms: _204  and  _205
REMARK   91  A    between atoms: _205  and  _206
REMARK   92  A    between atoms: _211  and  _213
REMARK   93  A    between atoms: _213  and  _214
REMARK   94  A    between atoms: _213  and  _216
REMARK   95  A    between atoms: _216  and  _217
REMARK   96  A    between atoms: _220  and  _222
REMARK   97  A    between atoms: _222  and  _223
REMARK   98  A    between atoms: _222  and  _225
REMARK   99  A    between atoms: _225  and  _226
REMARK  100  A    between atoms: _231  and  _233
REMARK  101  A    between atoms: _233  and  _234
REMARK  102  A    between atoms: _233  and  _236
REMARK  103  A    between atoms: _236  and  _237
REMARK  104  A    between atoms: _237  and  _238
REMARK  105  A    between atoms: _238  and  _239
REMARK  106  A    between atoms: _248  and  _250
REMARK  107  A    between atoms: _250  and  _251
REMARK  108  A    between atoms: _250  and  _253
REMARK  109  A    between atoms: _253  and  _254
REMARK  110  A    between atoms: _257  and  _259
REMARK  111  A    between atoms: _259  and  _260
REMARK  112  A    between atoms: _262  and  _264
REMARK  113  A    between atoms: _264  and  _265
REMARK  114  A    between atoms: _264  and  _267
REMARK  115  A    between atoms: _267  and  _268
REMARK  116  A    between atoms: _271  and  _273
REMARK  117  A    between atoms: _273  and  _274
REMARK  118  A    between atoms: _273  and  _276
REMARK  119  A    between atoms: _279  and  _281
REMARK  120  A    between atoms: _281  and  _282
REMARK  121  A    between atoms: _281  and  _284
REMARK  122  A    between atoms: _284  and  _285
REMARK  123  A    between atoms: _288  and  _290
REMARK  124  A    between atoms: _290  and  _291
REMARK  125  A    between atoms: _290  and  _293
REMARK  126  A    between atoms: _293  and  _294
REMARK  127  A    between atoms: _294  and  _295
REMARK  128  A    between atoms: _295  and  _296
REMARK  129  A    between atoms: _296  and  _297
REMARK  130  A    between atoms: _301  and  _303
REMARK  131  A    between atoms: _303  and  _304
REMARK  132  A    between atoms: _303  and  _306
REMARK  133  A    between atoms: _306  and  _307
REMARK  134  A    between atoms: _307  and  _308
REMARK  135  A    between atoms: _313  and  _315
REMARK  136  A    between atoms: _315  and  _316
REMARK  137  A    between atoms: _315  and  _318
REMARK  138  A    between atoms: _318  and  _319
REMARK  139  A    between atoms: _326  and  _327
REMARK  140  A    between atoms: _332  and  _334
REMARK  141  A    between atoms: _334  and  _335
REMARK  142  A    between atoms: _334  and  _337
REMARK  143  A    between atoms: _337  and  _338
REMARK  144  A    between atoms: _348  and  _350
REMARK  145  A    between atoms: _350  and  _351
REMARK  146  A    between atoms: _354  and  _356
REMARK  147  A    between atoms: _356  and  _357
REMARK  148  A    between atoms: _356  and  _359
REMARK  149  A    between atoms: _359  and  _360
REMARK  150  A    between atoms: _363  and  _365
REMARK  151  A    between atoms: _365  and  _366
REMARK                            x       y       z     vdW  Elec       q    Type
REMARK                         _______ _______ _______ _____ _____    ______ ____
ROOT
ATOM      1  CB  GLN A   1      26.496  29.910  10.430  0.00  0.00    +0.035 C 
ENDROOT
BRANCH   1   2
ATOM      2  CA  GLN A   1      25.463  30.881  11.004  0.00  0.00    +0.134 C 
BRANCH   2   3
ATOM      3  N   GLN A   1      25.414  32.121  10.254  0.00  0.00    -0.239 NA
ATOM      4  H   GLN A   1      26.109  32.295   9.500  0.00  0.00    +0.142 HD
ENDBRANCH   2   3
BRANCH   2   5
ATOM      5  C   GLN A   1      25.713  31.154  12.505  0.00  0.00    +0.224 C 
ATOM      6  O   GLN A   1      25.113  30.516  13.349  0.00  0.00    -0.287 OA
ENDBRANCH   2   5
ENDBRANCH   1   2
BRANCH   1   7
ATOM      7  CG  GLN A   1      26.228  28.466  10.845  0.00  0.00    +0.087 C 
BRANCH   7   8
ATOM      8  CD  GLN A   1      25.068  27.833  10.112  0.00  0.00    +0.219 C 
ATOM      9  NE2 GLN A   1      24.470  26.817  10.743  0.00  0.00    -0.329 N 
ATOM     10 HE21 GLN A   1      24.811  26.512  11.677  0.00  0.00    +0.145 HD
ATOM     11 HE22 GLN A   1      23.664  26.332  10.300  0.00  0.00    +0.145 HD
ATOM     12  OE1 GLN A   1      24.698  28.237   8.991  0.00  0.00    -0.275 OA
ENDBRANCH   7   8
ENDBRANCH   1   7
TORSDOF 5
REMARK  Name = ../refined-set-2016/4cc5/4cc5_pocket.pdb
REMARK  151 active torsions:
REMARK  status: ('A' for Active; 'I' for Inactive)
REMARK    1  A    between atoms: _1  and  _3
REMARK    2  A    between atoms: _3  and  _4
REMARK    3  A    between atoms: _3  and  _6
REMARK    4  A    between atoms: _6  and  _7
REMARK    5  A    between atoms: _7  and  _8
REMARK    6  A    between atoms: _10  and  _12
REMARK    7  A    between atoms: _12  and  _13
REMARK    8  A    between atoms: _12  and  _15
REMARK    9  A    between atoms: _15  and  _16
REMARK   10  A    between atoms: _19  and  _21
REMARK   11  A    between atoms: _21  and  _22
REMARK   12  A    between atoms: _21  and  _24
REMARK   13  A    between atoms: _24  and  _25
REMARK   14  A    between atoms: _27  and  _29
REMARK   15  A    between atoms: _29  and  _30
REMARK   16  A    between atoms: _29  and  _32
REMARK   17  A    between atoms: _32  and  _33
REMARK   18  A    between atoms: _36  and  _38
REMARK   19  A    between atoms: _38  and  _39
REMARK   20  A    between atoms: _38  and  _41
REMARK   21  A    between atoms: _41  and  _42
REMARK   22  A    between atoms: _42  and  _43
REMARK   23  A    between atoms: _45  and  _47
REMARK   24  A    between atoms: _47  and  _48
REMARK   25  A    between atoms: _47  and  _50
REMARK   26  A    between atoms: _52  and  _54
REMARK   27  A    between atoms: _54  and  _55
REMARK   28  A    between atoms: _54  and  _57
REMARK   29  A    between atoms: _57  and  _58
REMARK   30  A    between atoms: _58  and  _59
REMARK   31  A    between atoms: _62  and  _64
REMARK   32  A    between atoms: _64  and  _65
REMARK   33  A    between atoms: _64  and  _67
REMARK   34  A    between atoms: _67  and  _68
REMARK   35  A    between atoms: _71  and  _73
REMARK   36  A    between atoms: _73  and  _74
REMARK   37  A    between atoms: _73  and  _76
REMARK   38  A    between atoms: _76  and  _77
REMARK   39  A    between atoms: _77  and  _78
REMARK   40  A    between atoms: _78  and  _79
REMARK   41  A    between atoms: _79  and  _80
REMARK   42  A    between atoms: _84  and  _86
REMARK   43  A    between atoms: _86  and  _87
REMARK   44  A    between atoms: _86  and  _89
REMARK   45  A    between atoms: _89  and  _90
REMARK   46  A    between atoms: _93  and  _95
REMARK   47  A    between atoms: _95  and  _96
REMARK   48  A    between atoms: _99  and  _101
REMARK   49  A    between atoms: _101  and  _102
REMARK   50  A    between atoms: _101  and  _104
REMARK   51  A    between atoms: _104  and  _105
REMARK   52  A    between atoms: _105  and  _106
REMARK   53  A    between atoms: _106  and  _107
REMARK   54  A    between atoms: _116  and  _118
REMARK   55  A    between atoms: _118  and  _119
REMARK   56  A    between atoms: _118  and  _121
REMARK   57  A    between atoms: _121  and  _122
REMARK   58  A    between atoms: _122  and  _123
REMARK   59  A    between atoms: _123  and  _124
REMARK   60  A    between atoms: _133  and  _135
REMARK   61  A    between atoms: _135  and  _136
REMARK   62  A    between atoms: _138  and  _140
REMARK   63  A    between atoms: _140  and  _141
REMARK   64  A    between atoms: _140  and  _143
REMARK   65  A    between atoms: _143  and  _144
REMARK   66  A    between atoms: _144  and  _145
REMARK   67  A    between atoms: _148  and  _150
REMARK   68  A    between atoms: _150  and  _151
REMARK   69  A    between atoms: _150  and  _153
REMARK   70  A    between atoms: _153  and  _154
REMARK   71  A    between atoms: _160  and  _162
REMARK   72  A    between atoms: _162  and  _163
REMARK   73  A    between atoms: _162  and  _165
REMARK   74  A    between atoms: _165  and  _166
REMARK   75  A    between atoms: _169  and  _171
REMARK   76  A    between atoms: _171  and  _172
REMARK   77  A    between atoms: _171  and  _174
REMARK   78  A    between atoms: _174  and  _175
REMARK   79  A    between atoms: _180  and  _181
REMARK   80  A    between atoms: _183  and  _185
REMARK   81  A    between atoms: _185  and  _186
REMARK   82  A    between atoms: _185  and  _188
REMARK   83  A    between atoms: _188  and  _189
REMARK   84  A    between atoms: _191  and  _193
REMARK   85  A    between atoms: _193  and  _194
REMARK   86  A    between atoms: _193  and  _196
REMARK   87  A    between atoms: _199  and  _201
REMARK   88  A    between atoms: _201  and  _202
REMARK   89  A    between atoms: _201  and  _204
REMARK   90  A    between atoms: _204  and  _205
REMARK   91  A    between atoms: _205  and  _206
REMARK   92  A    between atoms: _211  and  _213
REMARK   93  A    between atoms: _213  and  _214
REMARK   94  A    between atoms: _213  and  _216
REMARK   95  A    between atoms: _216  and  _217
REMARK   96  A    between atoms: _220  and  _222
REMARK   97  A    between atoms: _222  and  _223
REMARK   98  A    between atoms: _222  and  _225
REMARK   99  A    between atoms: _225  and  _226
REMARK  100  A    between atoms: _231  and  _233
REMARK  101  A    between atoms: _233  and  _234
REMARK  102  A    between atoms: _233  and  _236
REMARK  103  A    between atoms: _236  and  _237
REMARK  104  A    between atoms: _237  and  _238
REMARK  105  A    between atoms: _238  and  _239
REMARK  106  A    between atoms: _248  and  _250
REMARK  107  A    between atoms: _250  and  _251
REMARK  108  A    between atoms: _250  and  _253
REMARK  109  A    between atoms: _253  and  _254
REMARK  110  A    between atoms: _257  and  _259
REMARK  111  A    between atoms: _259  and  _260
REMARK  112  A    between atoms: _262  and  _264
REMARK  113  A    between atoms: _264  and  _265
REMARK  114  A    between atoms: _264  and  _267
REMARK  115  A    between atoms: _267  and  _268
REMARK  116  A    between atoms: _271  and  _273
REMARK  117  A    between atoms: _273  and  _274
REMARK  118  A    between atoms: _273  and  _276
REMARK  119  A    between atoms: _279  and  _281
REMARK  120  A    between atoms: _281  and  _282
REMARK  121  A    between atoms: _281  and  _284
REMARK  122  A    between atoms: _284  and  _285
REMARK  123  A    between atoms: _288  and  _290
REMARK  124  A    between atoms: _290  and  _291
REMARK  125  A    between atoms: _290  and  _293
REMARK  126  A    between atoms: _293  and  _294
REMARK  127  A    between atoms: _294  and  _295
REMARK  128  A    between atoms: _295  and  _296
REMARK  129  A    between atoms: _296  and  _297
REMARK  130  A    between atoms: _301  and  _303
REMARK  131  A    between atoms: _303  and  _304
REMARK  132  A    between atoms: _303  and  _306
REMARK  133  A    between atoms: _306  and  _307
REMARK  134  A    between atoms: _307  and  _308
REMARK  135  A    between atoms: _313  and  _315
REMARK  136  A    between atoms: _315  and  _316
REMARK  137  A    between atoms: _315  and  _318
REMARK  138  A    between atoms: _318  and  _319
REMARK  139  A    between atoms: _326  and  _327
REMARK  140  A    between atoms: _332  and  _334
REMARK  141  A    between atoms: _334  and  _335
REMARK  142  A    between atoms: _334  and  _337
REMARK  143  A    between atoms: _337  and  _338
REMARK  144  A    between atoms: _348  and  _350
REMARK  145  A    between atoms: _350  and  _351
REMARK  146  A    between atoms: _354  and  _356
REMARK  147  A    between atoms: _356  and  _357
REMARK  148  A    between atoms: _356  and  _359
REMARK  149  A    between atoms: _359  and  _360
REMARK  150  A    between atoms: _363  and  _365
REMARK  151  A    between atoms: _365  and  _366
REMARK                            x       y       z     vdW  Elec       q    Type
REMARK                         _______ _______ _______ _____ _____    ______ ____
ROOT
ATOM      1  CA  LEU A   1      23.454  29.266  16.740  0.00  0.00    +0.133 C 
ENDROOT
BRANCH   1   2
ATOM      2  N   LEU A   1      23.175  30.088  15.568  0.00  0.00    -0.239 NA
ATOM      3  H   LEU A   1      23.957  30.458  14.991  0.00  0.00    +0.142 HD
ENDBRANCH   1   2
BRANCH   1   4
ATOM      4  C   LEU A   1      23.078  29.988  18.040  0.00  0.00    +0.224 C 
ATOM      5  O   LEU A   1      22.509  29.384  18.945  0.00  0.00    -0.287 OA
ENDBRANCH   1   4
BRANCH   1   6
ATOM      6  CB  LEU A   1      24.905  28.823  16.717  0.00  0.00    +0.025 C 
BRANCH   6   7
ATOM      7  CG  LEU A   1      25.095  27.810  15.591  0.00  0.00    +0.002 C 
ATOM      8  CD2 LEU A   1      24.752  26.413  16.061  0.00  0.00    +0.000 C 
ATOM      9  CD1 LEU A   1      26.496  27.878  15.021  0.00  0.00    +0.000 C 
ENDBRANCH   6   7
ENDBRANCH   1   6
TORSDOF 4
REMARK  Name = ../refined-set-2016/4cc5/4cc5_pocket.pdb
REMARK  151 active torsions:
REMARK  status: ('A' for Active; 'I' for Inactive)
REMARK    1  A    between atoms: _1  and  _3
REMARK    2  A    between atoms: _3  and  _4
REMARK    3  A    between atoms: _3  and  _6
REMARK    4  A    between atoms: _6  and  _7
REMARK    5  A    between atoms: _7  and  _8
REMARK    6  A    between atoms: _10  and  _12
REMARK    7  A    between atoms: _12  and  _13
REMARK    8  A    between atoms: _12  and  _15
REMARK    9  A    between atoms: _15  and  _16
REMARK   10  A    between atoms: _19  and  _21
REMARK   11  A    between atoms: _21  and  _22
REMARK   12  A    between atoms: _21  and  _24
REMARK   13  A    between atoms: _24  and  _25
REMARK   14  A    between atoms: _27  and  _29
REMARK   15  A    between atoms: _29  and  _30
REMARK   16  A    between atoms: _29  and  _32
REMARK   17  A    between atoms: _32  and  _33
REMARK   18  A    between atoms: _36  and  _38
REMARK   19  A    between atoms: _38  and  _39
REMARK   20  A    between atoms: _38  and  _41
REMARK   21  A    between atoms: _41  and  _42
REMARK   22  A    between atoms: _42  and  _43
REMARK   23  A    between atoms: _45  and  _47
REMARK   24  A    between atoms: _47  and  _48
REMARK   25  A    between atoms: _47  and  _50
REMARK   26  A    between atoms: _52  and  _54
REMARK   27  A    between atoms: _54  and  _55
REMARK   28  A    between atoms: _54  and  _57
REMARK   29  A    between atoms: _57  and  _58
REMARK   30  A    between atoms: _58  and  _59
REMARK   31  A    between atoms: _62  and  _64
REMARK   32  A    between atoms: _64  and  _65
REMARK   33  A    between atoms: _64  and  _67
REMARK   34  A    between atoms: _67  and  _68
REMARK   35  A    between atoms: _71  and  _73
REMARK   36  A    between atoms: _73  and  _74
REMARK   37  A    between atoms: _73  and  _76
REMARK   38  A    between atoms: _76  and  _77
REMARK   39  A    between atoms: _77  and  _78
REMARK   40  A    between atoms: _78  and  _79
REMARK   41  A    between atoms: _79  and  _80
REMARK   42  A    between atoms: _84  and  _86
REMARK   43  A    between atoms: _86  and  _87
REMARK   44  A    between atoms: _86  and  _89
REMARK   45  A    between atoms: _89  and  _90
REMARK   46  A    between atoms: _93  and  _95
REMARK   47  A    between atoms: _95  and  _96
REMARK   48  A    between atoms: _99  and  _101
REMARK   49  A    between atoms: _101  and  _102
REMARK   50  A    between atoms: _101  and  _104
REMARK   51  A    between atoms: _104  and  _105
REMARK   52  A    between atoms: _105  and  _106
REMARK   53  A    between atoms: _106  and  _107
REMARK   54  A    between atoms: _116  and  _118
REMARK   55  A    between atoms: _118  and  _119
REMARK   56  A    between atoms: _118  and  _121
REMARK   57  A    between atoms: _121  and  _122
REMARK   58  A    between atoms: _122  and  _123
REMARK   59  A    between atoms: _123  and  _124
REMARK   60  A    between atoms: _133  and  _135
REMARK   61  A    between atoms: _135  and  _136
REMARK   62  A    between atoms: _138  and  _140
REMARK   63  A    between atoms: _140  and  _141
REMARK   64  A    between atoms: _140  and  _143
REMARK   65  A    between atoms: _143  and  _144
REMARK   66  A    between atoms: _144  and  _145
REMARK   67  A    between atoms: _148  and  _150
REMARK   68  A    between atoms: _150  and  _151
REMARK   69  A    between atoms: _150  and  _153
REMARK   70  A    between atoms: _153  and  _154
REMARK   71  A    between atoms: _160  and  _162
REMARK   72  A    between atoms: _162  and  _163
REMARK   73  A    between atoms: _162  and  _165
REMARK   74  A    between atoms: _165  and  _166
REMARK   75  A    between atoms: _169  and  _171
REMARK   76  A    between atoms: _171  and  _172
REMARK   77  A    between atoms: _171  and  _174
REMARK   78  A    between atoms: _174  and  _175
REMARK   79  A    between atoms: _180  and  _181
REMARK   80  A    between atoms: _183  and  _185
REMARK   81  A    between atoms: _185  and  _186
REMARK   82  A    between atoms: _185  and  _188
REMARK   83  A    between atoms: _188  and  _189
REMARK   84  A    between atoms: _191  and  _193
REMARK   85  A    between atoms: _193  and  _194
REMARK   86  A    between atoms: _193  and  _196
REMARK   87  A    between atoms: _199  and  _201
REMARK   88  A    between atoms: _201  and  _202
REMARK   89  A    between atoms: _201  and  _204
REMARK   90  A    between atoms: _204  and  _205
REMARK   91  A    between atoms: _205  and  _206
REMARK   92  A    between atoms: _211  and  _213
REMARK   93  A    between atoms: _213  and  _214
REMARK   94  A    between atoms: _213  and  _216
REMARK   95  A    between atoms: _216  and  _217
REMARK   96  A    between atoms: _220  and  _222
REMARK   97  A    between atoms: _222  and  _223
REMARK   98  A    between atoms: _222  and  _225
REMARK   99  A    between atoms: _225  and  _226
REMARK  100  A    between atoms: _231  and  _233
REMARK  101  A    between atoms: _233  and  _234
REMARK  102  A    between atoms: _233  and  _236
REMARK  103  A    between atoms: _236  and  _237
REMARK  104  A    between atoms: _237  and  _238
REMARK  105  A    between atoms: _238  and  _239
REMARK  106  A    between atoms: _248  and  _250
REMARK  107  A    between atoms: _250  and  _251
REMARK  108  A    between atoms: _250  and  _253
REMARK  109  A    between atoms: _253  and  _254
REMARK  110  A    between atoms: _257  and  _259
REMARK  111  A    between atoms: _259  and  _260
REMARK  112  A    between atoms: _262  and  _264
REMARK  113  A    between atoms: _264  and  _265
REMARK  114  A    between atoms: _264  and  _267
REMARK  115  A    between atoms: _267  and  _268
REMARK  116  A    between atoms: _271  and  _273
REMARK  117  A    between atoms: _273  and  _274
REMARK  118  A    between atoms: _273  and  _276
REMARK  119  A    between atoms: _279  and  _281
REMARK  120  A    between atoms: _281  and  _282
REMARK  121  A    between atoms: _281  and  _284
REMARK  122  A    between atoms: _284  and  _285
REMARK  123  A    between atoms: _288  and  _290
REMARK  124  A    between atoms: _290  and  _291
REMARK  125  A    between atoms: _290  and  _293
REMARK  126  A    between atoms: _293  and  _294
REMARK  127  A    between atoms: _294  and  _295
REMARK  128  A    between atoms: _295  and  _296
REMARK  129  A    between atoms: _296  and  _297
REMARK  130  A    between atoms: _301  and  _303
REMARK  131  A    between atoms: _303  and  _304
REMARK  132  A    between atoms: _303  and  _306
REMARK  133  A    between atoms: _306  and  _307
REMARK  134  A    between atoms: _307  and  _308
REMARK  135  A    between atoms: _313  and  _315
REMARK  136  A    between atoms: _315  and  _316
REMARK  137  A    between atoms: _315  and  _318
REMARK  138  A    between atoms: _318  and  _319
REMARK  139  A    between atoms: _326  and  _327
REMARK  140  A    between atoms: _332  and  _334
REMARK  141  A    between atoms: _334  and  _335
REMARK  142  A    between atoms: _334  and  _337
REMARK  143  A    between atoms: _337  and  _338
REMARK  144  A    between atoms: _348  and  _350
REMARK  145  A    between atoms: _350  and  _351
REMARK  146  A    between atoms: _354  and  _356
REMARK  147  A    between atoms: _356  and  _357
REMARK  148  A    between atoms: _356  and  _359
REMARK  149  A    between atoms: _359  and  _360
REMARK  150  A    between atoms: _363  and  _365
REMARK  151  A    between atoms: _365  and  _366
REMARK                            x       y       z     vdW  Elec       q    Type
REMARK                         _______ _______ _______ _____ _____    ______ ____
ROOT
ATOM      1  CB  ASN A   1      29.402  23.145  20.255  0.00  0.00    +0.110 C 
ENDROOT
BRANCH   1   2
ATOM      2  CG  ASN A   1      30.783  22.800  20.775  0.00  0.00    +0.221 C 
ATOM      3  ND2 ASN A   1      30.939  21.606  21.295  0.00  0.00    -0.329 N 
ATOM      4 HD21 ASN A   1      31.866  21.318  21.668  0.00  0.00    +0.145 HD
ATOM      5 HD22 ASN A   1      30.136  20.947  21.334  0.00  0.00    +0.145 HD
ATOM      6  OD1 ASN A   1      31.687  23.612  20.703  0.00  0.00    -0.275 OA
ENDBRANCH   1   2
BRANCH   1   7
ATOM      7  CA  ASN A   1      28.608  23.974  21.252  0.00  0.00    +0.142 C 
BRANCH   7   8
ATOM      8  N   ASN A   1      27.206  24.052  20.825  0.00  0.00    -0.239 NA
ATOM      9  H   ASN A   1      26.983  24.016  19.810  0.00  0.00    +0.142 HD
ENDBRANCH   7   8
BRANCH   7  10
ATOM     10  C   ASN A   1      29.230  25.368  21.399  0.00  0.00    +0.225 C 
ATOM     11  O   ASN A   1      29.293  26.125  20.444  0.00  0.00    -0.287 OA
ENDBRANCH   7  10
ENDBRANCH   1   7
TORSDOF 4
REMARK  Name = ../refined-set-2016/4cc5/4cc5_pocket.pdb
REMARK  151 active torsions:
REMARK  status: ('A' for Active; 'I' for Inactive)
REMARK    1  A    between atoms: _1  and  _3
REMARK    2  A    between atoms: _3  and  _4
REMARK    3  A    between atoms: _3  and  _6
REMARK    4  A    between atoms: _6  and  _7
REMARK    5  A    between atoms: _7  and  _8
REMARK    6  A    between atoms: _10  and  _12
REMARK    7  A    between atoms: _12  and  _13
REMARK    8  A    between atoms: _12  and  _15
REMARK    9  A    between atoms: _15  and  _16
REMARK   10  A    between atoms: _19  and  _21
REMARK   11  A    between atoms: _21  and  _22
REMARK   12  A    between atoms: _21  and  _24
REMARK   13  A    between atoms: _24  and  _25
REMARK   14  A    between atoms: _27  and  _29
REMARK   15  A    between atoms: _29  and  _30
REMARK   16  A    between atoms: _29  and  _32
REMARK   17  A    between atoms: _32  and  _33
REMARK   18  A    between atoms: _36  and  _38
REMARK   19  A    between atoms: _38  and  _39
REMARK   20  A    between atoms: _38  and  _41
REMARK   21  A    between atoms: _41  and  _42
REMARK   22  A    between atoms: _42  and  _43
REMARK   23  A    between atoms: _45  and  _47
REMARK   24  A    between atoms: _47  and  _48
REMARK   25  A    between atoms: _47  and  _50
REMARK   26  A    between atoms: _52  and  _54
REMARK   27  A    between atoms: _54  and  _55
REMARK   28  A    between atoms: _54  and  _57
REMARK   29  A    between atoms: _57  and  _58
REMARK   30  A    between atoms: _58  and  _59
REMARK   31  A    between atoms: _62  and  _64
REMARK   32  A    between atoms: _64  and  _65
REMARK   33  A    between atoms: _64  and  _67
REMARK   34  A    between atoms: _67  and  _68
REMARK   35  A    between atoms: _71  and  _73
REMARK   36  A    between atoms: _73  and  _74
REMARK   37  A    between atoms: _73  and  _76
REMARK   38  A    between atoms: _76  and  _77
REMARK   39  A    between atoms: _77  and  _78
REMARK   40  A    between atoms: _78  and  _79
REMARK   41  A    between atoms: _79  and  _80
REMARK   42  A    between atoms: _84  and  _86
REMARK   43  A    between atoms: _86  and  _87
REMARK   44  A    between atoms: _86  and  _89
REMARK   45  A    between atoms: _89  and  _90
REMARK   46  A    between atoms: _93  and  _95
REMARK   47  A    between atoms: _95  and  _96
REMARK   48  A    between atoms: _99  and  _101
REMARK   49  A    between atoms: _101  and  _102
REMARK   50  A    between atoms: _101  and  _104
REMARK   51  A    between atoms: _104  and  _105
REMARK   52  A    between atoms: _105  and  _106
REMARK   53  A    between atoms: _106  and  _107
REMARK   54  A    between atoms: _116  and  _118
REMARK   55  A    between atoms: _118  and  _119
REMARK   56  A    between atoms: _118  and  _121
REMARK   57  A    between atoms: _121  and  _122
REMARK   58  A    between atoms: _122  and  _123
REMARK   59  A    between atoms: _123  and  _124
REMARK   60  A    between atoms: _133  and  _135
REMARK   61  A    between atoms: _135  and  _136
REMARK   62  A    between atoms: _138  and  _140
REMARK   63  A    between atoms: _140  and  _141
REMARK   64  A    between atoms: _140  and  _143
REMARK   65  A    between atoms: _143  and  _144
REMARK   66  A    between atoms: _144  and  _145
REMARK   67  A    between atoms: _148  and  _150
REMARK   68  A    between atoms: _150  and  _151
REMARK   69  A    between atoms: _150  and  _153
REMARK   70  A    between atoms: _153  and  _154
REMARK   71  A    between atoms: _160  and  _162
REMARK   72  A    between atoms: _162  and  _163
REMARK   73  A    between atoms: _162  and  _165
REMARK   74  A    between atoms: _165  and  _166
REMARK   75  A    between atoms: _169  and  _171
REMARK   76  A    between atoms: _171  and  _172
REMARK   77  A    between atoms: _171  and  _174
REMARK   78  A    between atoms: _174  and  _175
REMARK   79  A    between atoms: _180  and  _181
REMARK   80  A    between atoms: _183  and  _185
REMARK   81  A    between atoms: _185  and  _186
REMARK   82  A    between atoms: _185  and  _188
REMARK   83  A    between atoms: _188  and  _189
REMARK   84  A    between atoms: _191  and  _193
REMARK   85  A    between atoms: _193  and  _194
REMARK   86  A    between atoms: _193  and  _196
REMARK   87  A    between atoms: _199  and  _201
REMARK   88  A    between atoms: _201  and  _202
REMARK   89  A    between atoms: _201  and  _204
REMARK   90  A    between atoms: _204  and  _205
REMARK   91  A    between atoms: _205  and  _206
REMARK   92  A    between atoms: _211  and  _213
REMARK   93  A    between atoms: _213  and  _214
REMARK   94  A    between atoms: _213  and  _216
REMARK   95  A    between atoms: _216  and  _217
REMARK   96  A    between atoms: _220  and  _222
REMARK   97  A    between atoms: _222  and  _223
REMARK   98  A    between atoms: _222  and  _225
REMARK   99  A    between atoms: _225  and  _226
REMARK  100  A    between atoms: _231  and  _233
REMARK  101  A    between atoms: _233  and  _234
REMARK  102  A    between atoms: _233  and  _236
REMARK  103  A    between atoms: _236  and  _237
REMARK  104  A    between atoms: _237  and  _238
REMARK  105  A    between atoms: _238  and  _239
REMARK  106  A    between atoms: _248  and  _250
REMARK  107  A    between atoms: _250  and  _251
REMARK  108  A    between atoms: _250  and  _253
REMARK  109  A    between atoms: _253  and  _254
REMARK  110  A    between atoms: _257  and  _259
REMARK  111  A    between atoms: _259  and  _260
REMARK  112  A    between atoms: _262  and  _264
REMARK  113  A    between atoms: _264  and  _265
REMARK  114  A    between atoms: _264  and  _267
REMARK  115  A    between atoms: _267  and  _268
REMARK  116  A    between atoms: _271  and  _273
REMARK  117  A    between atoms: _273  and  _274
REMARK  118  A    between atoms: _273  and  _276
REMARK  119  A    between atoms: _279  and  _281
REMARK  120  A    between atoms: _281  and  _282
REMARK  121  A    between atoms: _281  and  _284
REMARK  122  A    between atoms: _284  and  _285
REMARK  123  A    between atoms: _288  and  _290
REMARK  124  A    between atoms: _290  and  _291
REMARK  125  A    between atoms: _290  and  _293
REMARK  126  A    between atoms: _293  and  _294
REMARK  127  A    between atoms: _294  and  _295
REMARK  128  A    between atoms: _295  and  _296
REMARK  129  A    between atoms: _296  and  _297
REMARK  130  A    between atoms: _301  and  _303
REMARK  131  A    between atoms: _303  and  _304
REMARK  132  A    between atoms: _303  and  _306
REMARK  133  A    between atoms: _306  and  _307
REMARK  134  A    between atoms: _307  and  _308
REMARK  135  A    between atoms: _313  and  _315
REMARK  136  A    between atoms: _315  and  _316
REMARK  137  A    between atoms: _315  and  _318
REMARK  138  A    between atoms: _318  and  _319
REMARK  139  A    between atoms: _326  and  _327
REMARK  140  A    between atoms: _332  and  _334
REMARK  141  A    between atoms: _334  and  _335
REMARK  142  A    between atoms: _334  and  _337
REMARK  143  A    between atoms: _337  and  _338
REMARK  144  A    between atoms: _348  and  _350
REMARK  145  A    between atoms: _350  and  _351
REMARK  146  A    between atoms: _354  and  _356
REMARK  147  A    between atoms: _356  and  _357
REMARK  148  A    between atoms: _356  and  _359
REMARK  149  A    between atoms: _359  and  _360
REMARK  150  A    between atoms: _363  and  _365
REMARK  151  A    between atoms: _365  and  _366
REMARK                            x       y       z     vdW  Elec       q    Type
REMARK                         _______ _______ _______ _____ _____    ______ ____
ROOT
ATOM      1  NE  ARG A   1      27.832  29.584  18.781  0.00  0.00    -0.265 N 
ATOM      2  CZ  ARG A   1      27.072  29.144  19.774  0.00  0.00    +0.342 C 
ATOM      3  NH2 ARG A   1      26.230  29.967  20.379  0.00  0.00    -0.292 N 
ATOM      4 HH21 ARG A   1      25.634  29.621  21.158  0.00  0.00    +0.255 HD
ATOM      5 HH22 ARG A   1      26.164  30.960  20.075  0.00  0.00    +0.255 HD
ATOM      6  NH1 ARG A   1      27.143  27.882  20.173  0.00  0.00    -0.292 N 
ATOM      7 HH11 ARG A   1      26.542  27.549  20.953  0.00  0.00    +0.255 HD
ATOM      8 HH12 ARG A   1      27.800  27.225  19.706  0.00  0.00    +0.255 HD
ATOM      9  HE  ARG A   1      27.740  30.583  18.508  0.00  0.00    +0.259 HD
ENDROOT
BRANCH   1  10
ATOM     10  CD  ARG A   1      28.789  28.765  18.043  0.00  0.00    +0.174 C 
BRANCH  10  11
ATOM     11  CG  ARG A   1      30.230  28.882  18.450  0.00  0.00    +0.045 C 
BRANCH  11  12
ATOM     12  CB  ARG A   1      31.066  27.935  17.579  0.00  0.00    +0.029 C 
BRANCH  12  13
ATOM     13  CA  ARG A   1      32.500  27.786  18.044  0.00  0.00    +0.133 C 
BRANCH  13  14
ATOM     14  N   ARG A   1      32.552  27.149  19.359  0.00  0.00    -0.239 NA
ATOM     15  H   ARG A   1      31.662  26.935  19.853  0.00  0.00    +0.142 HD
ENDBRANCH  13  14
BRANCH  13  16
ATOM     16  C   ARG A   1      33.162  29.159  18.032  0.00  0.00    +0.224 C 
ATOM     17  O   ARG A   1      33.227  29.835  19.049  0.00  0.00    -0.287 OA
ENDBRANCH  13  16
ENDBRANCH  12  13
ENDBRANCH  11  12
ENDBRANCH  10  11
ENDBRANCH   1  10
TORSDOF 6
REMARK  Name = ../refined-set-2016/4cc5/4cc5_pocket.pdb
REMARK  151 active torsions:
REMARK  status: ('A' for Active; 'I' for Inactive)
REMARK    1  A    between atoms: _1  and  _3
REMARK    2  A    between atoms: _3  and  _4
REMARK    3  A    between atoms: _3  and  _6
REMARK    4  A    between atoms: _6  and  _7
REMARK    5  A    between atoms: _7  and  _8
REMARK    6  A    between atoms: _10  and  _12
REMARK    7  A    between atoms: _12  and  _13
REMARK    8  A    between atoms: _12  and  _15
REMARK    9  A    between atoms: _15  and  _16
REMARK   10  A    between atoms: _19  and  _21
REMARK   11  A    between atoms: _21  and  _22
REMARK   12  A    between atoms: _21  and  _24
REMARK   13  A    between atoms: _24  and  _25
REMARK   14  A    between atoms: _27  and  _29
REMARK   15  A    between atoms: _29  and  _30
REMARK   16  A    between atoms: _29  and  _32
REMARK   17  A    between atoms: _32  and  _33
REMARK   18  A    between atoms: _36  and  _38
REMARK   19  A    between atoms: _38  and  _39
REMARK   20  A    between atoms: _38  and  _41
REMARK   21  A    between atoms: _41  and  _42
REMARK   22  A    between atoms: _42  and  _43
REMARK   23  A    between atoms: _45  and  _47
REMARK   24  A    between atoms: _47  and  _48
REMARK   25  A    between atoms: _47  and  _50
REMARK   26  A    between atoms: _52  and  _54
REMARK   27  A    between atoms: _54  and  _55
REMARK   28  A    between atoms: _54  and  _57
REMARK   29  A    between atoms: _57  and  _58
REMARK   30  A    between atoms: _58  and  _59
REMARK   31  A    between atoms: _62  and  _64
REMARK   32  A    between atoms: _64  and  _65
REMARK   33  A    between atoms: _64  and  _67
REMARK   34  A    between atoms: _67  and  _68
REMARK   35  A    between atoms: _71  and  _73
REMARK   36  A    between atoms: _73  and  _74
REMARK   37  A    between atoms: _73  and  _76
REMARK   38  A    between atoms: _76  and  _77
REMARK   39  A    between atoms: _77  and  _78
REMARK   40  A    between atoms: _78  and  _79
REMARK   41  A    between atoms: _79  and  _80
REMARK   42  A    between atoms: _84  and  _86
REMARK   43  A    between atoms: _86  and  _87
REMARK   44  A    between atoms: _86  and  _89
REMARK   45  A    between atoms: _89  and  _90
REMARK   46  A    between atoms: _93  and  _95
REMARK   47  A    between atoms: _95  and  _96
REMARK   48  A    between atoms: _99  and  _101
REMARK   49  A    between atoms: _101  and  _102
REMARK   50  A    between atoms: _101  and  _104
REMARK   51  A    between atoms: _104  and  _105
REMARK   52  A    between atoms: _105  and  _106
REMARK   53  A    between atoms: _106  and  _107
REMARK   54  A    between atoms: _116  and  _118
REMARK   55  A    between atoms: _118  and  _119
REMARK   56  A    between atoms: _118  and  _121
REMARK   57  A    between atoms: _121  and  _122
REMARK   58  A    between atoms: _122  and  _123
REMARK   59  A    between atoms: _123  and  _124
REMARK   60  A    between atoms: _133  and  _135
REMARK   61  A    between atoms: _135  and  _136
REMARK   62  A    between atoms: _138  and  _140
REMARK   63  A    between atoms: _140  and  _141
REMARK   64  A    between atoms: _140  and  _143
REMARK   65  A    between atoms: _143  and  _144
REMARK   66  A    between atoms: _144  and  _145
REMARK   67  A    between atoms: _148  and  _150
REMARK   68  A    between atoms: _150  and  _151
REMARK   69  A    between atoms: _150  and  _153
REMARK   70  A    between atoms: _153  and  _154
REMARK   71  A    between atoms: _160  and  _162
REMARK   72  A    between atoms: _162  and  _163
REMARK   73  A    between atoms: _162  and  _165
REMARK   74  A    between atoms: _165  and  _166
REMARK   75  A    between atoms: _169  and  _171
REMARK   76  A    between atoms: _171  and  _172
REMARK   77  A    between atoms: _171  and  _174
REMARK   78  A    between atoms: _174  and  _175
REMARK   79  A    between atoms: _180  and  _181
REMARK   80  A    between atoms: _183  and  _185
REMARK   81  A    between atoms: _185  and  _186
REMARK   82  A    between atoms: _185  and  _188
REMARK   83  A    between atoms: _188  and  _189
REMARK   84  A    between atoms: _191  and  _193
REMARK   85  A    between atoms: _193  and  _194
REMARK   86  A    between atoms: _193  and  _196
REMARK   87  A    between atoms: _199  and  _201
REMARK   88  A    between atoms: _201  and  _202
REMARK   89  A    between atoms: _201  and  _204
REMARK   90  A    between atoms: _204  and  _205
REMARK   91  A    between atoms: _205  and  _206
REMARK   92  A    between atoms: _211  and  _213
REMARK   93  A    between atoms: _213  and  _214
REMARK   94  A    between atoms: _213  and  _216
REMARK   95  A    between atoms: _216  and  _217
REMARK   96  A    between atoms: _220  and  _222
REMARK   97  A    between atoms: _222  and  _223
REMARK   98  A    between atoms: _222  and  _225
REMARK   99  A    between atoms: _225  and  _226
REMARK  100  A    between atoms: _231  and  _233
REMARK  101  A    between atoms: _233  and  _234
REMARK  102  A    between atoms: _233  and  _236
REMARK  103  A    between atoms: _236  and  _237
REMARK  104  A    between atoms: _237  and  _238
REMARK  105  A    between atoms: _238  and  _239
REMARK  106  A    between atoms: _248  and  _250
REMARK  107  A    between atoms: _250  and  _251
REMARK  108  A    between atoms: _250  and  _253
REMARK  109  A    between atoms: _253  and  _254
REMARK  110  A    between atoms: _257  and  _259
REMARK  111  A    between atoms: _259  and  _260
REMARK  112  A    between atoms: _262  and  _264
REMARK  113  A    between atoms: _264  and  _265
REMARK  114  A    between atoms: _264  and  _267
REMARK  115  A    between atoms: _267  and  _268
REMARK  116  A    between atoms: _271  and  _273
REMARK  117  A    between atoms: _273  and  _274
REMARK  118  A    between atoms: _273  and  _276
REMARK  119  A    between atoms: _279  and  _281
REMARK  120  A    between atoms: _281  and  _282
REMARK  121  A    between atoms: _281  and  _284
REMARK  122  A    between atoms: _284  and  _285
REMARK  123  A    between atoms: _288  and  _290
REMARK  124  A    between atoms: _290  and  _291
REMARK  125  A    between atoms: _290  and  _293
REMARK  126  A    between atoms: _293  and  _294
REMARK  127  A    between atoms: _294  and  _295
REMARK  128  A    between atoms: _295  and  _296
REMARK  129  A    between atoms: _296  and  _297
REMARK  130  A    between atoms: _301  and  _303
REMARK  131  A    between atoms: _303  and  _304
REMARK  132  A    between atoms: _303  and  _306
REMARK  133  A    between atoms: _306  and  _307
REMARK  134  A    between atoms: _307  and  _308
REMARK  135  A    between atoms: _313  and  _315
REMARK  136  A    between atoms: _315  and  _316
REMARK  137  A    between atoms: _315  and  _318
REMARK  138  A    between atoms: _318  and  _319
REMARK  139  A    between atoms: _326  and  _327
REMARK  140  A    between atoms: _332  and  _334
REMARK  141  A    between atoms: _334  and  _335
REMARK  142  A    between atoms: _334  and  _337
REMARK  143  A    between atoms: _337  and  _338
REMARK  144  A    between atoms: _348  and  _350
REMARK  145  A    between atoms: _350  and  _351
REMARK  146  A    between atoms: _354  and  _356
REMARK  147  A    between atoms: _356  and  _357
REMARK  148  A    between atoms: _356  and  _359
REMARK  149  A    between atoms: _359  and  _360
REMARK  150  A    between atoms: _363  and  _365
REMARK  151  A    between atoms: _365  and  _366
REMARK                            x       y       z     vdW  Elec       q    Type
REMARK                         _______ _______ _______ _____ _____    ______ ____
ROOT
ATOM      1  CA  VAL A   4      33.601  22.183  10.374  0.00  0.00    +0.149 C 
ENDROOT
BRANCH   1   2
ATOM      2  C   VAL A   4      33.756  23.685  10.198  0.00  0.00    +0.241 C 
ATOM      3  O   VAL A   4      33.676  24.454  11.171  0.00  0.00    -0.273 OA
ATOM      4  N   ILE A   5      33.980  24.085   8.953  0.00  0.00    -0.297 N 
ATOM      5  H   ILE A   5      34.027  23.367   8.202  0.00  0.00    +0.150 HD
BRANCH   4   6
ATOM      6  CA  ILE A   5      34.163  25.480   8.589  0.00  0.00    +0.149 C 
BRANCH   6   7
ATOM      7  C   ILE A   5      33.069  25.872   7.619  0.00  0.00    +0.241 C 
ATOM      8  N   LYS A   6      32.363  26.971   7.904  0.00  0.00    -0.298 N 
ATOM      9  H   LYS A   6      32.592  27.518   8.758  0.00  0.00    +0.150 HD
ATOM     10  O   ILE A   5      32.869  25.182   6.615  0.00  0.00    -0.273 OA
BRANCH   8  11
ATOM     11  CA  LYS A   6      31.274  27.418   7.035  0.00  0.00    +0.137 C 
BRANCH  11  12
ATOM     12  C   LYS A   6      31.425  28.879   6.740  0.00  0.00    +0.227 C 
ATOM     13  O   LYS A   6      31.800  29.632   7.587  0.00  0.00    -0.286 OA
ENDBRANCH  11  12
BRANCH  11  14
ATOM     14  CB  LYS A   6      29.902  27.198   7.682  0.00  0.00    +0.028 C 
BRANCH  14  15
ATOM     15  CG  LYS A   6      29.574  25.748   7.919  0.00  0.00    -0.000 C 
BRANCH  15  16
ATOM     16  CD  LYS A   6      28.334  25.571   8.759  0.00  0.00    -0.024 C 
BRANCH  16  17
ATOM     17  CE  LYS A   6      28.192  24.112   9.133  0.00  0.00    -0.086 C 
BRANCH  17  18
ATOM     18  NZ  LYS A   6      26.825  23.818   9.640  0.00  0.00    +0.380 N 
ATOM     19  HZ1 LYS A   6      26.637  24.397  10.483  0.00  0.00    -0.089 HD
ATOM     20  HZ2 LYS A   6      26.758  22.810   9.888  0.00  0.00    -0.089 HD
ATOM     21  HZ3 LYS A   6      26.127  24.042   8.902  0.00  0.00    -0.089 HD
ENDBRANCH  17  18
ENDBRANCH  16  17
ENDBRANCH  15  16
ENDBRANCH  14  15
ENDBRANCH  11  14
ENDBRANCH   8  11
ENDBRANCH   6   7
BRANCH   6  22
ATOM     22  CB  ILE A   5      35.512  25.705   7.887  0.00  0.00    +0.027 C 
ATOM     23  CG2 ILE A   5      35.756  27.190   7.633  0.00  0.00    +0.002 C 
BRANCH  22  24
ATOM     24  CG1 ILE A   5      36.666  25.065   8.672  0.00  0.00    +0.002 C 
ATOM     25  CD1 ILE A   5      36.784  25.595  10.069  0.00  0.00    +0.000 C 
ENDBRANCH  22  24
ENDBRANCH   6  22
ENDBRANCH   4   6
ENDBRANCH   1   2
BRANCH   1  27
ATOM     26  C   ILE A   3      35.622  21.215  11.314  0.00  0.00    +0.241 C 
ATOM     27  N   VAL A   4      34.420  21.770  11.511  0.00  0.00    -0.297 N 
ATOM     28  H   VAL A   4      34.067  21.908  12.479  0.00  0.00    +0.150 HD
ATOM     29  O   ILE A   3      36.102  21.008  10.189  0.00  0.00    -0.273 OA
BRANCH  26  30
ATOM     30  CA  ILE A   3      36.427  20.823  12.553  0.00  0.00    +0.149 C 
BRANCH  30  33
ATOM     31  C   GLY A   2      36.754  18.547  13.343  0.00  0.00    +0.243 C 
ATOM     32  O   GLY A   2      36.335  18.783  14.496  0.00  0.00    -0.273 OA
ATOM     33  N   ILE A   3      36.835  19.450  12.384  0.00  0.00    -0.297 N 
ATOM     34  H   ILE A   3      37.212  19.157  11.460  0.00  0.00    +0.150 HD
BRANCH  31  35
ATOM     35  CA  GLY A   2      37.220  17.176  12.924  0.00  0.00    +0.176 C 
BRANCH  35  37
ATOM     36  C   ASP A   1      37.097  14.868  13.528  0.00  0.00    +0.239 C 
ATOM     37  N   GLY A   2      36.713  16.109  13.754  0.00  0.00    -0.296 N 
ATOM     38  H   GLY A   2      36.048  16.318  14.526  0.00  0.00    +0.150 HD
ATOM     39  O   ASP A   1      37.816  14.563  12.568  0.00  0.00    -0.274 OA
BRANCH  36  40
ATOM     40  CA  ASP A   1      36.612  13.814  14.515  0.00  0.00    +0.156 C 
BRANCH  40  41
ATOM     41  N   ASP A   1      35.850  14.385  15.646  0.00  0.00    -0.238 NA
ATOM     42  H   ASP A   1      34.920  14.815  15.465  0.00  0.00    +0.142 HD
ENDBRANCH  40  41
BRANCH  40  43
ATOM     43  CB  ASP A   1      35.843  12.713  13.787  0.00  0.00    +0.140 C 
BRANCH  43  44
ATOM     44  CG  ASP A   1      34.504  13.157  13.263  0.00  0.00    +0.367 C 
ATOM     45  OD2 ASP A   1      34.142  14.344  13.388  0.00  0.00    -0.246 OA
ATOM     46  OD1 ASP A   1      33.800  12.286  12.712  0.00  0.00    -0.246 OA
ENDBRANCH  43  44
ENDBRANCH  40  43
ENDBRANCH  36  40
ENDBRANCH  35  37
ENDBRANCH  31  35
ENDBRANCH  30  33
BRANCH  30  47
ATOM     47  CB  ILE A   3      37.657  21.741  12.638  0.00  0.00    +0.027 C 
ATOM     48  CG2 ILE A   3      37.249  23.206  12.730  0.00  0.00    +0.002 C 
BRANCH  47  49
ATOM     49  CG1 ILE A   3      38.559  21.360  13.829  0.00  0.00    +0.002 C 
ATOM     50  CD1 ILE A   3      38.009  21.639  15.194  0.00  0.00    +0.000 C 
ENDBRANCH  47  49
ENDBRANCH  30  47
ENDBRANCH  26  30
ENDBRANCH   1  27
BRANCH   1  51
ATOM     51  CB  VAL A   4      32.127  21.763  10.553  0.00  0.00    +0.027 C 
ATOM     52  CG2 VAL A   4      32.058  20.252  10.730  0.00  0.00    +0.002 C 
ATOM     53  CG1 VAL A   4      31.291  22.214   9.354  0.00  0.00    +0.002 C 
ENDBRANCH   1  51
TORSDOF 24
REMARK  Name = ../refined-set-2016/4cc5/4cc5_pocket.pdb
REMARK  151 active torsions:
REMARK  status: ('A' for Active; 'I' for Inactive)
REMARK    1  A    between atoms: _1  and  _3
REMARK    2  A    between atoms: _3  and  _4
REMARK    3  A    between atoms: _3  and  _6
REMARK    4  A    between atoms: _6  and  _7
REMARK    5  A    between atoms: _7  and  _8
REMARK    6  A    between atoms: _10  and  _12
REMARK    7  A    between atoms: _12  and  _13
REMARK    8  A    between atoms: _12  and  _15
REMARK    9  A    between atoms: _15  and  _16
REMARK   10  A    between atoms: _19  and  _21
REMARK   11  A    between atoms: _21  and  _22
REMARK   12  A    between atoms: _21  and  _24
REMARK   13  A    between atoms: _24  and  _25
REMARK   14  A    between atoms: _27  and  _29
REMARK   15  A    between atoms: _29  and  _30
REMARK   16  A    between atoms: _29  and  _32
REMARK   17  A    between atoms: _32  and  _33
REMARK   18  A    between atoms: _36  and  _38
REMARK   19  A    between atoms: _38  and  _39
REMARK   20  A    between atoms: _38  and  _41
REMARK   21  A    between atoms: _41  and  _42
REMARK   22  A    between atoms: _42  and  _43
REMARK   23  A    between atoms: _45  and  _47
REMARK   24  A    between atoms: _47  and  _48
REMARK   25  A    between atoms: _47  and  _50
REMARK   26  A    between atoms: _52  and  _54
REMARK   27  A    between atoms: _54  and  _55
REMARK   28  A    between atoms: _54  and  _57
REMARK   29  A    between atoms: _57  and  _58
REMARK   30  A    between atoms: _58  and  _59
REMARK   31  A    between atoms: _62  and  _64
REMARK   32  A    between atoms: _64  and  _65
REMARK   33  A    between atoms: _64  and  _67
REMARK   34  A    between atoms: _67  and  _68
REMARK   35  A    between atoms: _71  and  _73
REMARK   36  A    between atoms: _73  and  _74
REMARK   37  A    between atoms: _73  and  _76
REMARK   38  A    between atoms: _76  and  _77
REMARK   39  A    between atoms: _77  and  _78
REMARK   40  A    between atoms: _78  and  _79
REMARK   41  A    between atoms: _79  and  _80
REMARK   42  A    between atoms: _84  and  _86
REMARK   43  A    between atoms: _86  and  _87
REMARK   44  A    between atoms: _86  and  _89
REMARK   45  A    between atoms: _89  and  _90
REMARK   46  A    between atoms: _93  and  _95
REMARK   47  A    between atoms: _95  and  _96
REMARK   48  A    between atoms: _99  and  _101
REMARK   49  A    between atoms: _101  and  _102
REMARK   50  A    between atoms: _101  and  _104
REMARK   51  A    between atoms: _104  and  _105
REMARK   52  A    between atoms: _105  and  _106
REMARK   53  A    between atoms: _106  and  _107
REMARK   54  A    between atoms: _116  and  _118
REMARK   55  A    between atoms: _118  and  _119
REMARK   56  A    between atoms: _118  and  _121
REMARK   57  A    between atoms: _121  and  _122
REMARK   58  A    between atoms: _122  and  _123
REMARK   59  A    between atoms: _123  and  _124
REMARK   60  A    between atoms: _133  and  _135
REMARK   61  A    between atoms: _135  and  _136
REMARK   62  A    between atoms: _138  and  _140
REMARK   63  A    between atoms: _140  and  _141
REMARK   64  A    between atoms: _140  and  _143
REMARK   65  A    between atoms: _143  and  _144
REMARK   66  A    between atoms: _144  and  _145
REMARK   67  A    between atoms: _148  and  _150
REMARK   68  A    between atoms: _150  and  _151
REMARK   69  A    between atoms: _150  and  _153
REMARK   70  A    between atoms: _153  and  _154
REMARK   71  A    between atoms: _160  and  _162
REMARK   72  A    between atoms: _162  and  _163
REMARK   73  A    between atoms: _162  and  _165
REMARK   74  A    between atoms: _165  and  _166
REMARK   75  A    between atoms: _169  and  _171
REMARK   76  A    between atoms: _171  and  _172
REMARK   77  A    between atoms: _171  and  _174
REMARK   78  A    between atoms: _174  and  _175
REMARK   79  A    between atoms: _180  and  _181
REMARK   80  A    between atoms: _183  and  _185
REMARK   81  A    between atoms: _185  and  _186
REMARK   82  A    between atoms: _185  and  _188
REMARK   83  A    between atoms: _188  and  _189
REMARK   84  A    between atoms: _191  and  _193
REMARK   85  A    between atoms: _193  and  _194
REMARK   86  A    between atoms: _193  and  _196
REMARK   87  A    between atoms: _199  and  _201
REMARK   88  A    between atoms: _201  and  _202
REMARK   89  A    between atoms: _201  and  _204
REMARK   90  A    between atoms: _204  and  _205
REMARK   91  A    between atoms: _205  and  _206
REMARK   92  A    between atoms: _211  and  _213
REMARK   93  A    between atoms: _213  and  _214
REMARK   94  A    between atoms: _213  and  _216
REMARK   95  A    between atoms: _216  and  _217
REMARK   96  A    between atoms: _220  and  _222
REMARK   97  A    between atoms: _222  and  _223
REMARK   98  A    between atoms: _222  and  _225
REMARK   99  A    between atoms: _225  and  _226
REMARK  100  A    between atoms: _231  and  _233
REMARK  101  A    between atoms: _233  and  _234
REMARK  102  A    between atoms: _233  and  _236
REMARK  103  A    between atoms: _236  and  _237
REMARK  104  A    between atoms: _237  and  _238
REMARK  105  A    between atoms: _238  and  _239
REMARK  106  A    between atoms: _248  and  _250
REMARK  107  A    between atoms: _250  and  _251
REMARK  108  A    between atoms: _250  and  _253
REMARK  109  A    between atoms: _253  and  _254
REMARK  110  A    between atoms: _257  and  _259
REMARK  111  A    between atoms: _259  and  _260
REMARK  112  A    between atoms: _262  and  _264
REMARK  113  A    between atoms: _264  and  _265
REMARK  114  A    between atoms: _264  and  _267
REMARK  115  A    between atoms: _267  and  _268
REMARK  116  A    between atoms: _271  and  _273
REMARK  117  A    between atoms: _273  and  _274
REMARK  118  A    between atoms: _273  and  _276
REMARK  119  A    between atoms: _279  and  _281
REMARK  120  A    between atoms: _281  and  _282
REMARK  121  A    between atoms: _281  and  _284
REMARK  122  A    between atoms: _284  and  _285
REMARK  123  A    between atoms: _288  and  _290
REMARK  124  A    between atoms: _290  and  _291
REMARK  125  A    between atoms: _290  and  _293
REMARK  126  A    between atoms: _293  and  _294
REMARK  127  A    between atoms: _294  and  _295
REMARK  128  A    between atoms: _295  and  _296
REMARK  129  A    between atoms: _296  and  _297
REMARK  130  A    between atoms: _301  and  _303
REMARK  131  A    between atoms: _303  and  _304
REMARK  132  A    between atoms: _303  and  _306
REMARK  133  A    between atoms: _306  and  _307
REMARK  134  A    between atoms: _307  and  _308
REMARK  135  A    between atoms: _313  and  _315
REMARK  136  A    between atoms: _315  and  _316
REMARK  137  A    between atoms: _315  and  _318
REMARK  138  A    between atoms: _318  and  _319
REMARK  139  A    between atoms: _326  and  _327
REMARK  140  A    between atoms: _332  and  _334
REMARK  141  A    between atoms: _334  and  _335
REMARK  142  A    between atoms: _334  and  _337
REMARK  143  A    between atoms: _337  and  _338
REMARK  144  A    between atoms: _348  and  _350
REMARK  145  A    between atoms: _350  and  _351
REMARK  146  A    between atoms: _354  and  _356
REMARK  147  A    between atoms: _356  and  _357
REMARK  148  A    between atoms: _356  and  _359
REMARK  149  A    between atoms: _359  and  _360
REMARK  150  A    between atoms: _363  and  _365
REMARK  151  A    between atoms: _365  and  _366
REMARK                            x       y       z     vdW  Elec       q    Type
REMARK                         _______ _______ _______ _____ _____    ______ ____
ROOT
ATOM      1  CB  GLN A   1      25.516  29.773   2.730  0.00  0.00    +0.035 C 
ENDROOT
BRANCH   1   2
ATOM      2  CA  GLN A   1      26.134  30.429   1.520  0.00  0.00    +0.134 C 
BRANCH   2   3
ATOM      3  N   GLN A   1      26.220  31.893   1.663  0.00  0.00    -0.239 NA
ATOM      4  H   GLN A   1      25.879  32.343   2.536  0.00  0.00    +0.142 HD
ENDBRANCH   2   3
BRANCH   2   5
ATOM      5  C   GLN A   1      25.263  30.140   0.322  0.00  0.00    +0.224 C 
ATOM      6  O   GLN A   1      25.667  29.375  -0.560  0.00  0.00    -0.287 OA
ENDBRANCH   2   5
ENDBRANCH   1   2
BRANCH   1   7
ATOM      7  CG  GLN A   1      26.339  29.855   3.974  0.00  0.00    +0.087 C 
BRANCH   7   8
ATOM      8  CD  GLN A   1      25.631  29.265   5.158  0.00  0.00    +0.219 C 
ATOM      9  NE2 GLN A   1      26.211  29.454   6.316  0.00  0.00    -0.329 N 
ATOM     10 HE21 GLN A   1      25.779  29.074   7.182  0.00  0.00    +0.145 HD
ATOM     11 HE22 GLN A   1      27.104  29.984   6.370  0.00  0.00    +0.145 HD
ATOM     12  OE1 GLN A   1      24.569  28.643   5.036  0.00  0.00    -0.275 OA
ENDBRANCH   7   8
ENDBRANCH   1   7
TORSDOF 5
REMARK  Name = ../refined-set-2016/4cc5/4cc5_pocket.pdb
REMARK  151 active torsions:
REMARK  status: ('A' for Active; 'I' for Inactive)
REMARK    1  A    between atoms: _1  and  _3
REMARK    2  A    between atoms: _3  and  _4
REMARK    3  A    between atoms: _3  and  _6
REMARK    4  A    between atoms: _6  and  _7
REMARK    5  A    between atoms: _7  and  _8
REMARK    6  A    between atoms: _10  and  _12
REMARK    7  A    between atoms: _12  and  _13
REMARK    8  A    between atoms: _12  and  _15
REMARK    9  A    between atoms: _15  and  _16
REMARK   10  A    between atoms: _19  and  _21
REMARK   11  A    between atoms: _21  and  _22
REMARK   12  A    between atoms: _21  and  _24
REMARK   13  A    between atoms: _24  and  _25
REMARK   14  A    between atoms: _27  and  _29
REMARK   15  A    between atoms: _29  and  _30
REMARK   16  A    between atoms: _29  and  _32
REMARK   17  A    between atoms: _32  and  _33
REMARK   18  A    between atoms: _36  and  _38
REMARK   19  A    between atoms: _38  and  _39
REMARK   20  A    between atoms: _38  and  _41
REMARK   21  A    between atoms: _41  and  _42
REMARK   22  A    between atoms: _42  and  _43
REMARK   23  A    between atoms: _45  and  _47
REMARK   24  A    between atoms: _47  and  _48
REMARK   25  A    between atoms: _47  and  _50
REMARK   26  A    between atoms: _52  and  _54
REMARK   27  A    between atoms: _54  and  _55
REMARK   28  A    between atoms: _54  and  _57
REMARK   29  A    between atoms: _57  and  _58
REMARK   30  A    between atoms: _58  and  _59
REMARK   31  A    between atoms: _62  and  _64
REMARK   32  A    between atoms: _64  and  _65
REMARK   33  A    between atoms: _64  and  _67
REMARK   34  A    between atoms: _67  and  _68
REMARK   35  A    between atoms: _71  and  _73
REMARK   36  A    between atoms: _73  and  _74
REMARK   37  A    between atoms: _73  and  _76
REMARK   38  A    between atoms: _76  and  _77
REMARK   39  A    between atoms: _77  and  _78
REMARK   40  A    between atoms: _78  and  _79
REMARK   41  A    between atoms: _79  and  _80
REMARK   42  A    between atoms: _84  and  _86
REMARK   43  A    between atoms: _86  and  _87
REMARK   44  A    between atoms: _86  and  _89
REMARK   45  A    between atoms: _89  and  _90
REMARK   46  A    between atoms: _93  and  _95
REMARK   47  A    between atoms: _95  and  _96
REMARK   48  A    between atoms: _99  and  _101
REMARK   49  A    between atoms: _101  and  _102
REMARK   50  A    between atoms: _101  and  _104
REMARK   51  A    between atoms: _104  and  _105
REMARK   52  A    between atoms: _105  and  _106
REMARK   53  A    between atoms: _106  and  _107
REMARK   54  A    between atoms: _116  and  _118
REMARK   55  A    between atoms: _118  and  _119
REMARK   56  A    between atoms: _118  and  _121
REMARK   57  A    between atoms: _121  and  _122
REMARK   58  A    between atoms: _122  and  _123
REMARK   59  A    between atoms: _123  and  _124
REMARK   60  A    between atoms: _133  and  _135
REMARK   61  A    between atoms: _135  and  _136
REMARK   62  A    between atoms: _138  and  _140
REMARK   63  A    between atoms: _140  and  _141
REMARK   64  A    between atoms: _140  and  _143
REMARK   65  A    between atoms: _143  and  _144
REMARK   66  A    between atoms: _144  and  _145
REMARK   67  A    between atoms: _148  and  _150
REMARK   68  A    between atoms: _150  and  _151
REMARK   69  A    between atoms: _150  and  _153
REMARK   70  A    between atoms: _153  and  _154
REMARK   71  A    between atoms: _160  and  _162
REMARK   72  A    between atoms: _162  and  _163
REMARK   73  A    between atoms: _162  and  _165
REMARK   74  A    between atoms: _165  and  _166
REMARK   75  A    between atoms: _169  and  _171
REMARK   76  A    between atoms: _171  and  _172
REMARK   77  A    between atoms: _171  and  _174
REMARK   78  A    between atoms: _174  and  _175
REMARK   79  A    between atoms: _180  and  _181
REMARK   80  A    between atoms: _183  and  _185
REMARK   81  A    between atoms: _185  and  _186
REMARK   82  A    between atoms: _185  and  _188
REMARK   83  A    between atoms: _188  and  _189
REMARK   84  A    between atoms: _191  and  _193
REMARK   85  A    between atoms: _193  and  _194
REMARK   86  A    between atoms: _193  and  _196
REMARK   87  A    between atoms: _199  and  _201
REMARK   88  A    between atoms: _201  and  _202
REMARK   89  A    between atoms: _201  and  _204
REMARK   90  A    between atoms: _204  and  _205
REMARK   91  A    between atoms: _205  and  _206
REMARK   92  A    between atoms: _211  and  _213
REMARK   93  A    between atoms: _213  and  _214
REMARK   94  A    between atoms: _213  and  _216
REMARK   95  A    between atoms: _216  and  _217
REMARK   96  A    between atoms: _220  and  _222
REMARK   97  A    between atoms: _222  and  _223
REMARK   98  A    between atoms: _222  and  _225
REMARK   99  A    between atoms: _225  and  _226
REMARK  100  A    between atoms: _231  and  _233
REMARK  101  A    between atoms: _233  and  _234
REMARK  102  A    between atoms: _233  and  _236
REMARK  103  A    between atoms: _236  and  _237
REMARK  104  A    between atoms: _237  and  _238
REMARK  105  A    between atoms: _238  and  _239
REMARK  106  A    between atoms: _248  and  _250
REMARK  107  A    between atoms: _250  and  _251
REMARK  108  A    between atoms: _250  and  _253
REMARK  109  A    between atoms: _253  and  _254
REMARK  110  A    between atoms: _257  and  _259
REMARK  111  A    between atoms: _259  and  _260
REMARK  112  A    between atoms: _262  and  _264
REMARK  113  A    between atoms: _264  and  _265
REMARK  114  A    between atoms: _264  and  _267
REMARK  115  A    between atoms: _267  and  _268
REMARK  116  A    between atoms: _271  and  _273
REMARK  117  A    between atoms: _273  and  _274
REMARK  118  A    between atoms: _273  and  _276
REMARK  119  A    between atoms: _279  and  _281
REMARK  120  A    between atoms: _281  and  _282
REMARK  121  A    between atoms: _281  and  _284
REMARK  122  A    between atoms: _284  and  _285
REMARK  123  A    between atoms: _288  and  _290
REMARK  124  A    between atoms: _290  and  _291
REMARK  125  A    between atoms: _290  and  _293
REMARK  126  A    between atoms: _293  and  _294
REMARK  127  A    between atoms: _294  and  _295
REMARK  128  A    between atoms: _295  and  _296
REMARK  129  A    between atoms: _296  and  _297
REMARK  130  A    between atoms: _301  and  _303
REMARK  131  A    between atoms: _303  and  _304
REMARK  132  A    between atoms: _303  and  _306
REMARK  133  A    between atoms: _306  and  _307
REMARK  134  A    between atoms: _307  and  _308
REMARK  135  A    between atoms: _313  and  _315
REMARK  136  A    between atoms: _315  and  _316
REMARK  137  A    between atoms: _315  and  _318
REMARK  138  A    between atoms: _318  and  _319
REMARK  139  A    between atoms: _326  and  _327
REMARK  140  A    between atoms: _332  and  _334
REMARK  141  A    between atoms: _334  and  _335
REMARK  142  A    between atoms: _334  and  _337
REMARK  143  A    between atoms: _337  and  _338
REMARK  144  A    between atoms: _348  and  _350
REMARK  145  A    between atoms: _350  and  _351
REMARK  146  A    between atoms: _354  and  _356
REMARK  147  A    between atoms: _356  and  _357
REMARK  148  A    between atoms: _356  and  _359
REMARK  149  A    between atoms: _359  and  _360
REMARK  150  A    between atoms: _363  and  _365
REMARK  151  A    between atoms: _365  and  _366
REMARK                            x       y       z     vdW  Elec       q    Type
REMARK                         _______ _______ _______ _____ _____    ______ ____
ROOT
ATOM      1  CB  PHE A   1      24.854  22.437  -3.551  0.00  0.00    +0.051 C 
ENDROOT
BRANCH   1   2
ATOM      2  CG  PHE A   1      24.316  22.676  -2.189  0.00  0.00    -0.020 A 
ATOM      3  CD2 PHE A   1      24.605  21.799  -1.172  0.00  0.00    -0.004 A 
ATOM      4  CE2 PHE A   1      24.118  22.005   0.085  0.00  0.00    -0.000 A 
ATOM      5  CZ  PHE A   1      23.325  23.100   0.348  0.00  0.00    -0.000 A 
ATOM      6  CE1 PHE A   1      23.029  23.978  -0.647  0.00  0.00    -0.000 A 
ATOM      7  CD1 PHE A   1      23.517  23.777  -1.916  0.00  0.00    -0.004 A 
ENDBRANCH   1   2
BRANCH   1   8
ATOM      8  CA  PHE A   1      26.093  23.266  -3.879  0.00  0.00    +0.137 C 
BRANCH   8   9
ATOM      9  N   PHE A   1      25.712  24.625  -4.182  0.00  0.00    -0.239 NA
ATOM     10  H   PHE A   1      25.104  24.795  -5.009  0.00  0.00    +0.142 HD
ENDBRANCH   8   9
BRANCH   8  11
ATOM     11  C   PHE A   1      26.719  22.678  -5.097  0.00  0.00    +0.224 C 
ATOM     12  O   PHE A   1      26.382  23.079  -6.216  0.00  0.00    -0.287 OA
ENDBRANCH   8  11
ENDBRANCH   1   8
TORSDOF 4
REMARK  Name = ../refined-set-2016/4cc5/4cc5_pocket.pdb
REMARK  151 active torsions:
REMARK  status: ('A' for Active; 'I' for Inactive)
REMARK    1  A    between atoms: _1  and  _3
REMARK    2  A    between atoms: _3  and  _4
REMARK    3  A    between atoms: _3  and  _6
REMARK    4  A    between atoms: _6  and  _7
REMARK    5  A    between atoms: _7  and  _8
REMARK    6  A    between atoms: _10  and  _12
REMARK    7  A    between atoms: _12  and  _13
REMARK    8  A    between atoms: _12  and  _15
REMARK    9  A    between atoms: _15  and  _16
REMARK   10  A    between atoms: _19  and  _21
REMARK   11  A    between atoms: _21  and  _22
REMARK   12  A    between atoms: _21  and  _24
REMARK   13  A    between atoms: _24  and  _25
REMARK   14  A    between atoms: _27  and  _29
REMARK   15  A    between atoms: _29  and  _30
REMARK   16  A    between atoms: _29  and  _32
REMARK   17  A    between atoms: _32  and  _33
REMARK   18  A    between atoms: _36  and  _38
REMARK   19  A    between atoms: _38  and  _39
REMARK   20  A    between atoms: _38  and  _41
REMARK   21  A    between atoms: _41  and  _42
REMARK   22  A    between atoms: _42  and  _43
REMARK   23  A    between atoms: _45  and  _47
REMARK   24  A    between atoms: _47  and  _48
REMARK   25  A    between atoms: _47  and  _50
REMARK   26  A    between atoms: _52  and  _54
REMARK   27  A    between atoms: _54  and  _55
REMARK   28  A    between atoms: _54  and  _57
REMARK   29  A    between atoms: _57  and  _58
REMARK   30  A    between atoms: _58  and  _59
REMARK   31  A    between atoms: _62  and  _64
REMARK   32  A    between atoms: _64  and  _65
REMARK   33  A    between atoms: _64  and  _67
REMARK   34  A    between atoms: _67  and  _68
REMARK   35  A    between atoms: _71  and  _73
REMARK   36  A    between atoms: _73  and  _74
REMARK   37  A    between atoms: _73  and  _76
REMARK   38  A    between atoms: _76  and  _77
REMARK   39  A    between atoms: _77  and  _78
REMARK   40  A    between atoms: _78  and  _79
REMARK   41  A    between atoms: _79  and  _80
REMARK   42  A    between atoms: _84  and  _86
REMARK   43  A    between atoms: _86  and  _87
REMARK   44  A    between atoms: _86  and  _89
REMARK   45  A    between atoms: _89  and  _90
REMARK   46  A    between atoms: _93  and  _95
REMARK   47  A    between atoms: _95  and  _96
REMARK   48  A    between atoms: _99  and  _101
REMARK   49  A    between atoms: _101  and  _102
REMARK   50  A    between atoms: _101  and  _104
REMARK   51  A    between atoms: _104  and  _105
REMARK   52  A    between atoms: _105  and  _106
REMARK   53  A    between atoms: _106  and  _107
REMARK   54  A    between atoms: _116  and  _118
REMARK   55  A    between atoms: _118  and  _119
REMARK   56  A    between atoms: _118  and  _121
REMARK   57  A    between atoms: _121  and  _122
REMARK   58  A    between atoms: _122  and  _123
REMARK   59  A    between atoms: _123  and  _124
REMARK   60  A    between atoms: _133  and  _135
REMARK   61  A    between atoms: _135  and  _136
REMARK   62  A    between atoms: _138  and  _140
REMARK   63  A    between atoms: _140  and  _141
REMARK   64  A    between atoms: _140  and  _143
REMARK   65  A    between atoms: _143  and  _144
REMARK   66  A    between atoms: _144  and  _145
REMARK   67  A    between atoms: _148  and  _150
REMARK   68  A    between atoms: _150  and  _151
REMARK   69  A    between atoms: _150  and  _153
REMARK   70  A    between atoms: _153  and  _154
REMARK   71  A    between atoms: _160  and  _162
REMARK   72  A    between atoms: _162  and  _163
REMARK   73  A    between atoms: _162  and  _165
REMARK   74  A    between atoms: _165  and  _166
REMARK   75  A    between atoms: _169  and  _171
REMARK   76  A    between atoms: _171  and  _172
REMARK   77  A    between atoms: _171  and  _174
REMARK   78  A    between atoms: _174  and  _175
REMARK   79  A    between atoms: _180  and  _181
REMARK   80  A    between atoms: _183  and  _185
REMARK   81  A    between atoms: _185  and  _186
REMARK   82  A    between atoms: _185  and  _188
REMARK   83  A    between atoms: _188  and  _189
REMARK   84  A    between atoms: _191  and  _193
REMARK   85  A    between atoms: _193  and  _194
REMARK   86  A    between atoms: _193  and  _196
REMARK   87  A    between atoms: _199  and  _201
REMARK   88  A    between atoms: _201  and  _202
REMARK   89  A    between atoms: _201  and  _204
REMARK   90  A    between atoms: _204  and  _205
REMARK   91  A    between atoms: _205  and  _206
REMARK   92  A    between atoms: _211  and  _213
REMARK   93  A    between atoms: _213  and  _214
REMARK   94  A    between atoms: _213  and  _216
REMARK   95  A    between atoms: _216  and  _217
REMARK   96  A    between atoms: _220  and  _222
REMARK   97  A    between atoms: _222  and  _223
REMARK   98  A    between atoms: _222  and  _225
REMARK   99  A    between atoms: _225  and  _226
REMARK  100  A    between atoms: _231  and  _233
REMARK  101  A    between atoms: _233  and  _234
REMARK  102  A    between atoms: _233  and  _236
REMARK  103  A    between atoms: _236  and  _237
REMARK  104  A    between atoms: _237  and  _238
REMARK  105  A    between atoms: _238  and  _239
REMARK  106  A    between atoms: _248  and  _250
REMARK  107  A    between atoms: _250  and  _251
REMARK  108  A    between atoms: _250  and  _253
REMARK  109  A    between atoms: _253  and  _254
REMARK  110  A    between atoms: _257  and  _259
REMARK  111  A    between atoms: _259  and  _260
REMARK  112  A    between atoms: _262  and  _264
REMARK  113  A    between atoms: _264  and  _265
REMARK  114  A    between atoms: _264  and  _267
REMARK  115  A    between atoms: _267  and  _268
REMARK  116  A    between atoms: _271  and  _273
REMARK  117  A    between atoms: _273  and  _274
REMARK  118  A    between atoms: _273  and  _276
REMARK  119  A    between atoms: _279  and  _281
REMARK  120  A    between atoms: _281  and  _282
REMARK  121  A    between atoms: _281  and  _284
REMARK  122  A    between atoms: _284  and  _285
REMARK  123  A    between atoms: _288  and  _290
REMARK  124  A    between atoms: _290  and  _291
REMARK  125  A    between atoms: _290  and  _293
REMARK  126  A    between atoms: _293  and  _294
REMARK  127  A    between atoms: _294  and  _295
REMARK  128  A    between atoms: _295  and  _296
REMARK  129  A    between atoms: _296  and  _297
REMARK  130  A    between atoms: _301  and  _303
REMARK  131  A    between atoms: _303  and  _304
REMARK  132  A    between atoms: _303  and  _306
REMARK  133  A    between atoms: _306  and  _307
REMARK  134  A    between atoms: _307  and  _308
REMARK  135  A    between atoms: _313  and  _315
REMARK  136  A    between atoms: _315  and  _316
REMARK  137  A    between atoms: _315  and  _318
REMARK  138  A    between atoms: _318  and  _319
REMARK  139  A    between atoms: _326  and  _327
REMARK  140  A    between atoms: _332  and  _334
REMARK  141  A    between atoms: _334  and  _335
REMARK  142  A    between atoms: _334  and  _337
REMARK  143  A    between atoms: _337  and  _338
REMARK  144  A    between atoms: _348  and  _350
REMARK  145  A    between atoms: _350  and  _351
REMARK  146  A    between atoms: _354  and  _356
REMARK  147  A    between atoms: _356  and  _357
REMARK  148  A    between atoms: _356  and  _359
REMARK  149  A    between atoms: _359  and  _360
REMARK  150  A    between atoms: _363  and  _365
REMARK  151  A    between atoms: _365  and  _366
REMARK                            x       y       z     vdW  Elec       q    Type
REMARK                         _______ _______ _______ _____ _____    ______ ____
ROOT
ATOM      1  N   PRO A   1      27.781  21.202  -0.096  0.00  0.00    -0.212 NA
ATOM      2  CD  PRO A   1      27.533  20.659   1.246  0.00  0.00    +0.089 C 
ATOM      3  CG  PRO A   1      27.592  21.860   2.137  0.00  0.00    +0.021 C 
ATOM      4  CB  PRO A   1      27.561  23.079   1.321  0.00  0.00    +0.027 C 
ATOM      5  CA  PRO A   1      27.853  22.653  -0.126  0.00  0.00    +0.137 C 
ENDROOT
BRANCH   5   6
ATOM      6  C   PRO A   1      29.233  23.102  -0.557  0.00  0.00    +0.224 C 
ATOM      7  O   PRO A   1      30.242  22.511  -0.150  0.00  0.00    -0.287 OA
ENDBRANCH   5   6
TORSDOF 1
REMARK  Name = ../refined-set-2016/4cc5/4cc5_pocket.pdb
REMARK  151 active torsions:
REMARK  status: ('A' for Active; 'I' for Inactive)
REMARK    1  A    between atoms: _1  and  _3
REMARK    2  A    between atoms: _3  and  _4
REMARK    3  A    between atoms: _3  and  _6
REMARK    4  A    between atoms: _6  and  _7
REMARK    5  A    between atoms: _7  and  _8
REMARK    6  A    between atoms: _10  and  _12
REMARK    7  A    between atoms: _12  and  _13
REMARK    8  A    between atoms: _12  and  _15
REMARK    9  A    between atoms: _15  and  _16
REMARK   10  A    between atoms: _19  and  _21
REMARK   11  A    between atoms: _21  and  _22
REMARK   12  A    between atoms: _21  and  _24
REMARK   13  A    between atoms: _24  and  _25
REMARK   14  A    between atoms: _27  and  _29
REMARK   15  A    between atoms: _29  and  _30
REMARK   16  A    between atoms: _29  and  _32
REMARK   17  A    between atoms: _32  and  _33
REMARK   18  A    between atoms: _36  and  _38
REMARK   19  A    between atoms: _38  and  _39
REMARK   20  A    between atoms: _38  and  _41
REMARK   21  A    between atoms: _41  and  _42
REMARK   22  A    between atoms: _42  and  _43
REMARK   23  A    between atoms: _45  and  _47
REMARK   24  A    between atoms: _47  and  _48
REMARK   25  A    between atoms: _47  and  _50
REMARK   26  A    between atoms: _52  and  _54
REMARK   27  A    between atoms: _54  and  _55
REMARK   28  A    between atoms: _54  and  _57
REMARK   29  A    between atoms: _57  and  _58
REMARK   30  A    between atoms: _58  and  _59
REMARK   31  A    between atoms: _62  and  _64
REMARK   32  A    between atoms: _64  and  _65
REMARK   33  A    between atoms: _64  and  _67
REMARK   34  A    between atoms: _67  and  _68
REMARK   35  A    between atoms: _71  and  _73
REMARK   36  A    between atoms: _73  and  _74
REMARK   37  A    between atoms: _73  and  _76
REMARK   38  A    between atoms: _76  and  _77
REMARK   39  A    between atoms: _77  and  _78
REMARK   40  A    between atoms: _78  and  _79
REMARK   41  A    between atoms: _79  and  _80
REMARK   42  A    between atoms: _84  and  _86
REMARK   43  A    between atoms: _86  and  _87
REMARK   44  A    between atoms: _86  and  _89
REMARK   45  A    between atoms: _89  and  _90
REMARK   46  A    between atoms: _93  and  _95
REMARK   47  A    between atoms: _95  and  _96
REMARK   48  A    between atoms: _99  and  _101
REMARK   49  A    between atoms: _101  and  _102
REMARK   50  A    between atoms: _101  and  _104
REMARK   51  A    between atoms: _104  and  _105
REMARK   52  A    between atoms: _105  and  _106
REMARK   53  A    between atoms: _106  and  _107
REMARK   54  A    between atoms: _116  and  _118
REMARK   55  A    between atoms: _118  and  _119
REMARK   56  A    between atoms: _118  and  _121
REMARK   57  A    between atoms: _121  and  _122
REMARK   58  A    between atoms: _122  and  _123
REMARK   59  A    between atoms: _123  and  _124
REMARK   60  A    between atoms: _133  and  _135
REMARK   61  A    between atoms: _135  and  _136
REMARK   62  A    between atoms: _138  and  _140
REMARK   63  A    between atoms: _140  and  _141
REMARK   64  A    between atoms: _140  and  _143
REMARK   65  A    between atoms: _143  and  _144
REMARK   66  A    between atoms: _144  and  _145
REMARK   67  A    between atoms: _148  and  _150
REMARK   68  A    between atoms: _150  and  _151
REMARK   69  A    between atoms: _150  and  _153
REMARK   70  A    between atoms: _153  and  _154
REMARK   71  A    between atoms: _160  and  _162
REMARK   72  A    between atoms: _162  and  _163
REMARK   73  A    between atoms: _162  and  _165
REMARK   74  A    between atoms: _165  and  _166
REMARK   75  A    between atoms: _169  and  _171
REMARK   76  A    between atoms: _171  and  _172
REMARK   77  A    between atoms: _171  and  _174
REMARK   78  A    between atoms: _174  and  _175
REMARK   79  A    between atoms: _180  and  _181
REMARK   80  A    between atoms: _183  and  _185
REMARK   81  A    between atoms: _185  and  _186
REMARK   82  A    between atoms: _185  and  _188
REMARK   83  A    between atoms: _188  and  _189
REMARK   84  A    between atoms: _191  and  _193
REMARK   85  A    between atoms: _193  and  _194
REMARK   86  A    between atoms: _193  and  _196
REMARK   87  A    between atoms: _199  and  _201
REMARK   88  A    between atoms: _201  and  _202
REMARK   89  A    between atoms: _201  and  _204
REMARK   90  A    between atoms: _204  and  _205
REMARK   91  A    between atoms: _205  and  _206
REMARK   92  A    between atoms: _211  and  _213
REMARK   93  A    between atoms: _213  and  _214
REMARK   94  A    between atoms: _213  and  _216
REMARK   95  A    between atoms: _216  and  _217
REMARK   96  A    between atoms: _220  and  _222
REMARK   97  A    between atoms: _222  and  _223
REMARK   98  A    between atoms: _222  and  _225
REMARK   99  A    between atoms: _225  and  _226
REMARK  100  A    between atoms: _231  and  _233
REMARK  101  A    between atoms: _233  and  _234
REMARK  102  A    between atoms: _233  and  _236
REMARK  103  A    between atoms: _236  and  _237
REMARK  104  A    between atoms: _237  and  _238
REMARK  105  A    between atoms: _238  and  _239
REMARK  106  A    between atoms: _248  and  _250
REMARK  107  A    between atoms: _250  and  _251
REMARK  108  A    between atoms: _250  and  _253
REMARK  109  A    between atoms: _253  and  _254
REMARK  110  A    between atoms: _257  and  _259
REMARK  111  A    between atoms: _259  and  _260
REMARK  112  A    between atoms: _262  and  _264
REMARK  113  A    between atoms: _264  and  _265
REMARK  114  A    between atoms: _264  and  _267
REMARK  115  A    between atoms: _267  and  _268
REMARK  116  A    between atoms: _271  and  _273
REMARK  117  A    between atoms: _273  and  _274
REMARK  118  A    between atoms: _273  and  _276
REMARK  119  A    between atoms: _279  and  _281
REMARK  120  A    between atoms: _281  and  _282
REMARK  121  A    between atoms: _281  and  _284
REMARK  122  A    between atoms: _284  and  _285
REMARK  123  A    between atoms: _288  and  _290
REMARK  124  A    between atoms: _290  and  _291
REMARK  125  A    between atoms: _290  and  _293
REMARK  126  A    between atoms: _293  and  _294
REMARK  127  A    between atoms: _294  and  _295
REMARK  128  A    between atoms: _295  and  _296
REMARK  129  A    between atoms: _296  and  _297
REMARK  130  A    between atoms: _301  and  _303
REMARK  131  A    between atoms: _303  and  _304
REMARK  132  A    between atoms: _303  and  _306
REMARK  133  A    between atoms: _306  and  _307
REMARK  134  A    between atoms: _307  and  _308
REMARK  135  A    between atoms: _313  and  _315
REMARK  136  A    between atoms: _315  and  _316
REMARK  137  A    between atoms: _315  and  _318
REMARK  138  A    between atoms: _318  and  _319
REMARK  139  A    between atoms: _326  and  _327
REMARK  140  A    between atoms: _332  and  _334
REMARK  141  A    between atoms: _334  and  _335
REMARK  142  A    between atoms: _334  and  _337
REMARK  143  A    between atoms: _337  and  _338
REMARK  144  A    between atoms: _348  and  _350
REMARK  145  A    between atoms: _350  and  _351
REMARK  146  A    between atoms: _354  and  _356
REMARK  147  A    between atoms: _356  and  _357
REMARK  148  A    between atoms: _356  and  _359
REMARK  149  A    between atoms: _359  and  _360
REMARK  150  A    between atoms: _363  and  _365
REMARK  151  A    between atoms: _365  and  _366
REMARK                            x       y       z     vdW  Elec       q    Type
REMARK                         _______ _______ _______ _____ _____    ______ ____
ROOT
ATOM      1  CA  ALA A   2      31.308  24.362   4.023  0.00  0.00    +0.149 C 
ATOM      2  CB  ALA A   2      30.065  23.798   4.675  0.00  0.00    +0.031 C 
ENDROOT
BRANCH   1   5
ATOM      3  C   TRP A   1      30.723  26.363   2.737  0.00  0.00    +0.239 C 
ATOM      4  O   TRP A   1      30.798  27.093   3.735  0.00  0.00    -0.274 OA
ATOM      5  N   ALA A   2      30.960  25.054   2.778  0.00  0.00    -0.297 N 
ATOM      6  H   ALA A   2      30.896  24.504   1.898  0.00  0.00    +0.150 HD
BRANCH   3   7
ATOM      7  CA  TRP A   1      30.345  26.936   1.372  0.00  0.00    +0.149 C 
BRANCH   7   8
ATOM      8  N   TRP A   1      30.117  25.925   0.341  0.00  0.00    -0.238 NA
ATOM      9  H   TRP A   1      29.230  25.382   0.356  0.00  0.00    +0.142 HD
ENDBRANCH   7   8
BRANCH   7  10
ATOM     10  CB  TRP A   1      29.115  27.829   1.489  0.00  0.00    +0.054 C 
BRANCH  10  11
ATOM     11  CG  TRP A   1      27.815  27.102   1.572  0.00  0.00    -0.002 A 
ATOM     12  CD2 TRP A   1      27.225  26.517   2.734  0.00  0.00    +0.013 A 
ATOM     13  CE3 TRP A   1      27.606  26.420   4.076  0.00  0.00    +0.001 A 
ATOM     14  CZ3 TRP A   1      26.773  25.767   4.954  0.00  0.00    +0.000 A 
ATOM     15  CH2 TRP A   1      25.553  25.206   4.504  0.00  0.00    +0.001 A 
ATOM     16  CZ2 TRP A   1      25.164  25.293   3.189  0.00  0.00    +0.017 A 
ATOM     17  CE2 TRP A   1      25.996  25.943   2.323  0.00  0.00    +0.056 A 
ATOM     18  NE1 TRP A   1      25.863  26.175   0.978  0.00  0.00    -0.352 N 
ATOM     19  HE1 TRP A   1      25.061  25.872   0.390  0.00  0.00    +0.166 HD
ATOM     20  CD1 TRP A   1      26.948  26.865   0.536  0.00  0.00    +0.068 A 
ENDBRANCH  10  11
ENDBRANCH   7  10
ENDBRANCH   3   7
ENDBRANCH   1   5
BRANCH   1  21
ATOM     21  C   ALA A   2      32.269  23.243   3.732  0.00  0.00    +0.241 C 
ATOM     22  N   ILE A   3      33.123  22.938   4.705  0.00  0.00    -0.297 N 
ATOM     23  H   ILE A   3      33.092  23.471   5.597  0.00  0.00    +0.150 HD
ATOM     24  O   ALA A   2      32.246  22.655   2.647  0.00  0.00    -0.273 OA
BRANCH  22  25
ATOM     25  CA  ILE A   3      34.104  21.866   4.542  0.00  0.00    +0.149 C 
BRANCH  25  26
ATOM     26  C   ILE A   3      34.346  21.250   5.922  0.00  0.00    +0.241 C 
ATOM     27  O   ILE A   3      34.242  21.948   6.962  0.00  0.00    -0.273 OA
ATOM     28  N   ALA A   4      34.661  19.952   5.930  0.00  0.00    -0.298 N 
ATOM     29  H   ALA A   4      34.676  19.419   5.037  0.00  0.00    +0.150 HD
BRANCH  28  30
ATOM     30  CA  ALA A   4      34.984  19.275   7.182  0.00  0.00    +0.137 C 
ATOM     31  CB  ALA A   4      34.162  18.000   7.336  0.00  0.00    +0.030 C 
BRANCH  30  32
ATOM     32  C   ALA A   4      36.488  18.966   7.189  0.00  0.00    +0.227 C 
ATOM     33  O   ALA A   4      36.958  18.093   6.477  0.00  0.00    -0.286 OA
ENDBRANCH  30  32
ENDBRANCH  28  30
ENDBRANCH  25  26
BRANCH  25  34
ATOM     34  CB  ILE A   3      35.385  22.376   3.846  0.00  0.00    +0.027 C 
ATOM     35  CG2 ILE A   3      36.207  23.298   4.759  0.00  0.00    +0.002 C 
BRANCH  34  36
ATOM     36  CG1 ILE A   3      36.240  21.221   3.329  0.00  0.00    +0.002 C 
ATOM     37  CD1 ILE A   3      37.183  21.634   2.234  0.00  0.00    +0.000 C 
ENDBRANCH  34  36
ENDBRANCH  25  34
ENDBRANCH  22  25
ENDBRANCH   1  21
TORSDOF 12
REMARK  Name = ../refined-set-2016/4cc5/4cc5_pocket.pdb
REMARK  151 active torsions:
REMARK  status: ('A' for Active; 'I' for Inactive)
REMARK    1  A    between atoms: _1  and  _3
REMARK    2  A    between atoms: _3  and  _4
REMARK    3  A    between atoms: _3  and  _6
REMARK    4  A    between atoms: _6  and  _7
REMARK    5  A    between atoms: _7  and  _8
REMARK    6  A    between atoms: _10  and  _12
REMARK    7  A    between atoms: _12  and  _13
REMARK    8  A    between atoms: _12  and  _15
REMARK    9  A    between atoms: _15  and  _16
REMARK   10  A    between atoms: _19  and  _21
REMARK   11  A    between atoms: _21  and  _22
REMARK   12  A    between atoms: _21  and  _24
REMARK   13  A    between atoms: _24  and  _25
REMARK   14  A    between atoms: _27  and  _29
REMARK   15  A    between atoms: _29  and  _30
REMARK   16  A    between atoms: _29  and  _32
REMARK   17  A    between atoms: _32  and  _33
REMARK   18  A    between atoms: _36  and  _38
REMARK   19  A    between atoms: _38  and  _39
REMARK   20  A    between atoms: _38  and  _41
REMARK   21  A    between atoms: _41  and  _42
REMARK   22  A    between atoms: _42  and  _43
REMARK   23  A    between atoms: _45  and  _47
REMARK   24  A    between atoms: _47  and  _48
REMARK   25  A    between atoms: _47  and  _50
REMARK   26  A    between atoms: _52  and  _54
REMARK   27  A    between atoms: _54  and  _55
REMARK   28  A    between atoms: _54  and  _57
REMARK   29  A    between atoms: _57  and  _58
REMARK   30  A    between atoms: _58  and  _59
REMARK   31  A    between atoms: _62  and  _64
REMARK   32  A    between atoms: _64  and  _65
REMARK   33  A    between atoms: _64  and  _67
REMARK   34  A    between atoms: _67  and  _68
REMARK   35  A    between atoms: _71  and  _73
REMARK   36  A    between atoms: _73  and  _74
REMARK   37  A    between atoms: _73  and  _76
REMARK   38  A    between atoms: _76  and  _77
REMARK   39  A    between atoms: _77  and  _78
REMARK   40  A    between atoms: _78  and  _79
REMARK   41  A    between atoms: _79  and  _80
REMARK   42  A    between atoms: _84  and  _86
REMARK   43  A    between atoms: _86  and  _87
REMARK   44  A    between atoms: _86  and  _89
REMARK   45  A    between atoms: _89  and  _90
REMARK   46  A    between atoms: _93  and  _95
REMARK   47  A    between atoms: _95  and  _96
REMARK   48  A    between atoms: _99  and  _101
REMARK   49  A    between atoms: _101  and  _102
REMARK   50  A    between atoms: _101  and  _104
REMARK   51  A    between atoms: _104  and  _105
REMARK   52  A    between atoms: _105  and  _106
REMARK   53  A    between atoms: _106  and  _107
REMARK   54  A    between atoms: _116  and  _118
REMARK   55  A    between atoms: _118  and  _119
REMARK   56  A    between atoms: _118  and  _121
REMARK   57  A    between atoms: _121  and  _122
REMARK   58  A    between atoms: _122  and  _123
REMARK   59  A    between atoms: _123  and  _124
REMARK   60  A    between atoms: _133  and  _135
REMARK   61  A    between atoms: _135  and  _136
REMARK   62  A    between atoms: _138  and  _140
REMARK   63  A    between atoms: _140  and  _141
REMARK   64  A    between atoms: _140  and  _143
REMARK   65  A    between atoms: _143  and  _144
REMARK   66  A    between atoms: _144  and  _145
REMARK   67  A    between atoms: _148  and  _150
REMARK   68  A    between atoms: _150  and  _151
REMARK   69  A    between atoms: _150  and  _153
REMARK   70  A    between atoms: _153  and  _154
REMARK   71  A    between atoms: _160  and  _162
REMARK   72  A    between atoms: _162  and  _163
REMARK   73  A    between atoms: _162  and  _165
REMARK   74  A    between atoms: _165  and  _166
REMARK   75  A    between atoms: _169  and  _171
REMARK   76  A    between atoms: _171  and  _172
REMARK   77  A    between atoms: _171  and  _174
REMARK   78  A    between atoms: _174  and  _175
REMARK   79  A    between atoms: _180  and  _181
REMARK   80  A    between atoms: _183  and  _185
REMARK   81  A    between atoms: _185  and  _186
REMARK   82  A    between atoms: _185  and  _188
REMARK   83  A    between atoms: _188  and  _189
REMARK   84  A    between atoms: _191  and  _193
REMARK   85  A    between atoms: _193  and  _194
REMARK   86  A    between atoms: _193  and  _196
REMARK   87  A    between atoms: _199  and  _201
REMARK   88  A    between atoms: _201  and  _202
REMARK   89  A    between atoms: _201  and  _204
REMARK   90  A    between atoms: _204  and  _205
REMARK   91  A    between atoms: _205  and  _206
REMARK   92  A    between atoms: _211  and  _213
REMARK   93  A    between atoms: _213  and  _214
REMARK   94  A    between atoms: _213  and  _216
REMARK   95  A    between atoms: _216  and  _217
REMARK   96  A    between atoms: _220  and  _222
REMARK   97  A    between atoms: _222  and  _223
REMARK   98  A    between atoms: _222  and  _225
REMARK   99  A    between atoms: _225  and  _226
REMARK  100  A    between atoms: _231  and  _233
REMARK  101  A    between atoms: _233  and  _234
REMARK  102  A    between atoms: _233  and  _236
REMARK  103  A    between atoms: _236  and  _237
REMARK  104  A    between atoms: _237  and  _238
REMARK  105  A    between atoms: _238  and  _239
REMARK  106  A    between atoms: _248  and  _250
REMARK  107  A    between atoms: _250  and  _251
REMARK  108  A    between atoms: _250  and  _253
REMARK  109  A    between atoms: _253  and  _254
REMARK  110  A    between atoms: _257  and  _259
REMARK  111  A    between atoms: _259  and  _260
REMARK  112  A    between atoms: _262  and  _264
REMARK  113  A    between atoms: _264  and  _265
REMARK  114  A    between atoms: _264  and  _267
REMARK  115  A    between atoms: _267  and  _268
REMARK  116  A    between atoms: _271  and  _273
REMARK  117  A    between atoms: _273  and  _274
REMARK  118  A    between atoms: _273  and  _276
REMARK  119  A    between atoms: _279  and  _281
REMARK  120  A    between atoms: _281  and  _282
REMARK  121  A    between atoms: _281  and  _284
REMARK  122  A    between atoms: _284  and  _285
REMARK  123  A    between atoms: _288  and  _290
REMARK  124  A    between atoms: _290  and  _291
REMARK  125  A    between atoms: _290  and  _293
REMARK  126  A    between atoms: _293  and  _294
REMARK  127  A    between atoms: _294  and  _295
REMARK  128  A    between atoms: _295  and  _296
REMARK  129  A    between atoms: _296  and  _297
REMARK  130  A    between atoms: _301  and  _303
REMARK  131  A    between atoms: _303  and  _304
REMARK  132  A    between atoms: _303  and  _306
REMARK  133  A    between atoms: _306  and  _307
REMARK  134  A    between atoms: _307  and  _308
REMARK  135  A    between atoms: _313  and  _315
REMARK  136  A    between atoms: _315  and  _316
REMARK  137  A    between atoms: _315  and  _318
REMARK  138  A    between atoms: _318  and  _319
REMARK  139  A    between atoms: _326  and  _327
REMARK  140  A    between atoms: _332  and  _334
REMARK  141  A    between atoms: _334  and  _335
REMARK  142  A    between atoms: _334  and  _337
REMARK  143  A    between atoms: _337  and  _338
REMARK  144  A    between atoms: _348  and  _350
REMARK  145  A    between atoms: _350  and  _351
REMARK  146  A    between atoms: _354  and  _356
REMARK  147  A    between atoms: _356  and  _357
REMARK  148  A    between atoms: _356  and  _359
REMARK  149  A    between atoms: _359  and  _360
REMARK  150  A    between atoms: _363  and  _365
REMARK  151  A    between atoms: _365  and  _366
REMARK                            x       y       z     vdW  Elec       q    Type
REMARK                         _______ _______ _______ _____ _____    ______ ____
ROOT
ATOM      1  O   HOH     1      19.443  21.956   3.014  0.00  0.00    +0.000 OA
ENDROOT
TORSDOF 0
REMARK  Name = ../refined-set-2016/4cc5/4cc5_pocket.pdb
REMARK  151 active torsions:
REMARK  status: ('A' for Active; 'I' for Inactive)
REMARK    1  A    between atoms: _1  and  _3
REMARK    2  A    between atoms: _3  and  _4
REMARK    3  A    between atoms: _3  and  _6
REMARK    4  A    between atoms: _6  and  _7
REMARK    5  A    between atoms: _7  and  _8
REMARK    6  A    between atoms: _10  and  _12
REMARK    7  A    between atoms: _12  and  _13
REMARK    8  A    between atoms: _12  and  _15
REMARK    9  A    between atoms: _15  and  _16
REMARK   10  A    between atoms: _19  and  _21
REMARK   11  A    between atoms: _21  and  _22
REMARK   12  A    between atoms: _21  and  _24
REMARK   13  A    between atoms: _24  and  _25
REMARK   14  A    between atoms: _27  and  _29
REMARK   15  A    between atoms: _29  and  _30
REMARK   16  A    between atoms: _29  and  _32
REMARK   17  A    between atoms: _32  and  _33
REMARK   18  A    between atoms: _36  and  _38
REMARK   19  A    between atoms: _38  and  _39
REMARK   20  A    between atoms: _38  and  _41
REMARK   21  A    between atoms: _41  and  _42
REMARK   22  A    between atoms: _42  and  _43
REMARK   23  A    between atoms: _45  and  _47
REMARK   24  A    between atoms: _47  and  _48
REMARK   25  A    between atoms: _47  and  _50
REMARK   26  A    between atoms: _52  and  _54
REMARK   27  A    between atoms: _54  and  _55
REMARK   28  A    between atoms: _54  and  _57
REMARK   29  A    between atoms: _57  and  _58
REMARK   30  A    between atoms: _58  and  _59
REMARK   31  A    between atoms: _62  and  _64
REMARK   32  A    between atoms: _64  and  _65
REMARK   33  A    between atoms: _64  and  _67
REMARK   34  A    between atoms: _67  and  _68
REMARK   35  A    between atoms: _71  and  _73
REMARK   36  A    between atoms: _73  and  _74
REMARK   37  A    between atoms: _73  and  _76
REMARK   38  A    between atoms: _76  and  _77
REMARK   39  A    between atoms: _77  and  _78
REMARK   40  A    between atoms: _78  and  _79
REMARK   41  A    between atoms: _79  and  _80
REMARK   42  A    between atoms: _84  and  _86
REMARK   43  A    between atoms: _86  and  _87
REMARK   44  A    between atoms: _86  and  _89
REMARK   45  A    between atoms: _89  and  _90
REMARK   46  A    between atoms: _93  and  _95
REMARK   47  A    between atoms: _95  and  _96
REMARK   48  A    between atoms: _99  and  _101
REMARK   49  A    between atoms: _101  and  _102
REMARK   50  A    between atoms: _101  and  _104
REMARK   51  A    between atoms: _104  and  _105
REMARK   52  A    between atoms: _105  and  _106
REMARK   53  A    between atoms: _106  and  _107
REMARK   54  A    between atoms: _116  and  _118
REMARK   55  A    between atoms: _118  and  _119
REMARK   56  A    between atoms: _118  and  _121
REMARK   57  A    between atoms: _121  and  _122
REMARK   58  A    between atoms: _122  and  _123
REMARK   59  A    between atoms: _123  and  _124
REMARK   60  A    between atoms: _133  and  _135
REMARK   61  A    between atoms: _135  and  _136
REMARK   62  A    between atoms: _138  and  _140
REMARK   63  A    between atoms: _140  and  _141
REMARK   64  A    between atoms: _140  and  _143
REMARK   65  A    between atoms: _143  and  _144
REMARK   66  A    between atoms: _144  and  _145
REMARK   67  A    between atoms: _148  and  _150
REMARK   68  A    between atoms: _150  and  _151
REMARK   69  A    between atoms: _150  and  _153
REMARK   70  A    between atoms: _153  and  _154
REMARK   71  A    between atoms: _160  and  _162
REMARK   72  A    between atoms: _162  and  _163
REMARK   73  A    between atoms: _162  and  _165
REMARK   74  A    between atoms: _165  and  _166
REMARK   75  A    between atoms: _169  and  _171
REMARK   76  A    between atoms: _171  and  _172
REMARK   77  A    between atoms: _171  and  _174
REMARK   78  A    between atoms: _174  and  _175
REMARK   79  A    between atoms: _180  and  _181
REMARK   80  A    between atoms: _183  and  _185
REMARK   81  A    between atoms: _185  and  _186
REMARK   82  A    between atoms: _185  and  _188
REMARK   83  A    between atoms: _188  and  _189
REMARK   84  A    between atoms: _191  and  _193
REMARK   85  A    between atoms: _193  and  _194
REMARK   86  A    between atoms: _193  and  _196
REMARK   87  A    between atoms: _199  and  _201
REMARK   88  A    between atoms: _201  and  _202
REMARK   89  A    between atoms: _201  and  _204
REMARK   90  A    between atoms: _204  and  _205
REMARK   91  A    between atoms: _205  and  _206
REMARK   92  A    between atoms: _211  and  _213
REMARK   93  A    between atoms: _213  and  _214
REMARK   94  A    between atoms: _213  and  _216
REMARK   95  A    between atoms: _216  and  _217
REMARK   96  A    between atoms: _220  and  _222
REMARK   97  A    between atoms: _222  and  _223
REMARK   98  A    between atoms: _222  and  _225
REMARK   99  A    between atoms: _225  and  _226
REMARK  100  A    between atoms: _231  and  _233
REMARK  101  A    between atoms: _233  and  _234
REMARK  102  A    between atoms: _233  and  _236
REMARK  103  A    between atoms: _236  and  _237
REMARK  104  A    between atoms: _237  and  _238
REMARK  105  A    between atoms: _238  and  _239
REMARK  106  A    between atoms: _248  and  _250
REMARK  107  A    between atoms: _250  and  _251
REMARK  108  A    between atoms: _250  and  _253
REMARK  109  A    between atoms: _253  and  _254
REMARK  110  A    between atoms: _257  and  _259
REMARK  111  A    between atoms: _259  and  _260
REMARK  112  A    between atoms: _262  and  _264
REMARK  113  A    between atoms: _264  and  _265
REMARK  114  A    between atoms: _264  and  _267
REMARK  115  A    between atoms: _267  and  _268
REMARK  116  A    between atoms: _271  and  _273
REMARK  117  A    between atoms: _273  and  _274
REMARK  118  A    between atoms: _273  and  _276
REMARK  119  A    between atoms: _279  and  _281
REMARK  120  A    between atoms: _281  and  _282
REMARK  121  A    between atoms: _281  and  _284
REMARK  122  A    between atoms: _284  and  _285
REMARK  123  A    between atoms: _288  and  _290
REMARK  124  A    between atoms: _290  and  _291
REMARK  125  A    between atoms: _290  and  _293
REMARK  126  A    between atoms: _293  and  _294
REMARK  127  A    between atoms: _294  and  _295
REMARK  128  A    between atoms: _295  and  _296
REMARK  129  A    between atoms: _296  and  _297
REMARK  130  A    between atoms: _301  and  _303
REMARK  131  A    between atoms: _303  and  _304
REMARK  132  A    between atoms: _303  and  _306
REMARK  133  A    between atoms: _306  and  _307
REMARK  134  A    between atoms: _307  and  _308
REMARK  135  A    between atoms: _313  and  _315
REMARK  136  A    between atoms: _315  and  _316
REMARK  137  A    between atoms: _315  and  _318
REMARK  138  A    between atoms: _318  and  _319
REMARK  139  A    between atoms: _326  and  _327
REMARK  140  A    between atoms: _332  and  _334
REMARK  141  A    between atoms: _334  and  _335
REMARK  142  A    between atoms: _334  and  _337
REMARK  143  A    between atoms: _337  and  _338
REMARK  144  A    between atoms: _348  and  _350
REMARK  145  A    between atoms: _350  and  _351
REMARK  146  A    between atoms: _354  and  _356
REMARK  147  A    between atoms: _356  and  _357
REMARK  148  A    between atoms: _356  and  _359
REMARK  149  A    between atoms: _359  and  _360
REMARK  150  A    between atoms: _363  and  _365
REMARK  151  A    between atoms: _365  and  _366
REMARK                            x       y       z     vdW  Elec       q    Type
REMARK                         _______ _______ _______ _____ _____    ______ ____
ROOT
ATOM      1  O   HOH     1      28.201  12.867   5.579  0.00  0.00    +0.000 OA
ENDROOT
TORSDOF 0
REMARK  Name = ../refined-set-2016/4cc5/4cc5_pocket.pdb
REMARK  151 active torsions:
REMARK  status: ('A' for Active; 'I' for Inactive)
REMARK    1  A    between atoms: _1  and  _3
REMARK    2  A    between atoms: _3  and  _4
REMARK    3  A    between atoms: _3  and  _6
REMARK    4  A    between atoms: _6  and  _7
REMARK    5  A    between atoms: _7  and  _8
REMARK    6  A    between atoms: _10  and  _12
REMARK    7  A    between atoms: _12  and  _13
REMARK    8  A    between atoms: _12  and  _15
REMARK    9  A    between atoms: _15  and  _16
REMARK   10  A    between atoms: _19  and  _21
REMARK   11  A    between atoms: _21  and  _22
REMARK   12  A    between atoms: _21  and  _24
REMARK   13  A    between atoms: _24  and  _25
REMARK   14  A    between atoms: _27  and  _29
REMARK   15  A    between atoms: _29  and  _30
REMARK   16  A    between atoms: _29  and  _32
REMARK   17  A    between atoms: _32  and  _33
REMARK   18  A    between atoms: _36  and  _38
REMARK   19  A    between atoms: _38  and  _39
REMARK   20  A    between atoms: _38  and  _41
REMARK   21  A    between atoms: _41  and  _42
REMARK   22  A    between atoms: _42  and  _43
REMARK   23  A    between atoms: _45  and  _47
REMARK   24  A    between atoms: _47  and  _48
REMARK   25  A    between atoms: _47  and  _50
REMARK   26  A    between atoms: _52  and  _54
REMARK   27  A    between atoms: _54  and  _55
REMARK   28  A    between atoms: _54  and  _57
REMARK   29  A    between atoms: _57  and  _58
REMARK   30  A    between atoms: _58  and  _59
REMARK   31  A    between atoms: _62  and  _64
REMARK   32  A    between atoms: _64  and  _65
REMARK   33  A    between atoms: _64  and  _67
REMARK   34  A    between atoms: _67  and  _68
REMARK   35  A    between atoms: _71  and  _73
REMARK   36  A    between atoms: _73  and  _74
REMARK   37  A    between atoms: _73  and  _76
REMARK   38  A    between atoms: _76  and  _77
REMARK   39  A    between atoms: _77  and  _78
REMARK   40  A    between atoms: _78  and  _79
REMARK   41  A    between atoms: _79  and  _80
REMARK   42  A    between atoms: _84  and  _86
REMARK   43  A    between atoms: _86  and  _87
REMARK   44  A    between atoms: _86  and  _89
REMARK   45  A    between atoms: _89  and  _90
REMARK   46  A    between atoms: _93  and  _95
REMARK   47  A    between atoms: _95  and  _96
REMARK   48  A    between atoms: _99  and  _101
REMARK   49  A    between atoms: _101  and  _102
REMARK   50  A    between atoms: _101  and  _104
REMARK   51  A    between atoms: _104  and  _105
REMARK   52  A    between atoms: _105  and  _106
REMARK   53  A    between atoms: _106  and  _107
REMARK   54  A    between atoms: _116  and  _118
REMARK   55  A    between atoms: _118  and  _119
REMARK   56  A    between atoms: _118  and  _121
REMARK   57  A    between atoms: _121  and  _122
REMARK   58  A    between atoms: _122  and  _123
REMARK   59  A    between atoms: _123  and  _124
REMARK   60  A    between atoms: _133  and  _135
REMARK   61  A    between atoms: _135  and  _136
REMARK   62  A    between atoms: _138  and  _140
REMARK   63  A    between atoms: _140  and  _141
REMARK   64  A    between atoms: _140  and  _143
REMARK   65  A    between atoms: _143  and  _144
REMARK   66  A    between atoms: _144  and  _145
REMARK   67  A    between atoms: _148  and  _150
REMARK   68  A    between atoms: _150  and  _151
REMARK   69  A    between atoms: _150  and  _153
REMARK   70  A    between atoms: _153  and  _154
REMARK   71  A    between atoms: _160  and  _162
REMARK   72  A    between atoms: _162  and  _163
REMARK   73  A    between atoms: _162  and  _165
REMARK   74  A    between atoms: _165  and  _166
REMARK   75  A    between atoms: _169  and  _171
REMARK   76  A    between atoms: _171  and  _172
REMARK   77  A    between atoms: _171  and  _174
REMARK   78  A    between atoms: _174  and  _175
REMARK   79  A    between atoms: _180  and  _181
REMARK   80  A    between atoms: _183  and  _185
REMARK   81  A    between atoms: _185  and  _186
REMARK   82  A    between atoms: _185  and  _188
REMARK   83  A    between atoms: _188  and  _189
REMARK   84  A    between atoms: _191  and  _193
REMARK   85  A    between atoms: _193  and  _194
REMARK   86  A    between atoms: _193  and  _196
REMARK   87  A    between atoms: _199  and  _201
REMARK   88  A    between atoms: _201  and  _202
REMARK   89  A    between atoms: _201  and  _204
REMARK   90  A    between atoms: _204  and  _205
REMARK   91  A    between atoms: _205  and  _206
REMARK   92  A    between atoms: _211  and  _213
REMARK   93  A    between atoms: _213  and  _214
REMARK   94  A    between atoms: _213  and  _216
REMARK   95  A    between atoms: _216  and  _217
REMARK   96  A    between atoms: _220  and  _222
REMARK   97  A    between atoms: _222  and  _223
REMARK   98  A    between atoms: _222  and  _225
REMARK   99  A    between atoms: _225  and  _226
REMARK  100  A    between atoms: _231  and  _233
REMARK  101  A    between atoms: _233  and  _234
REMARK  102  A    between atoms: _233  and  _236
REMARK  103  A    between atoms: _236  and  _237
REMARK  104  A    between atoms: _237  and  _238
REMARK  105  A    between atoms: _238  and  _239
REMARK  106  A    between atoms: _248  and  _250
REMARK  107  A    between atoms: _250  and  _251
REMARK  108  A    between atoms: _250  and  _253
REMARK  109  A    between atoms: _253  and  _254
REMARK  110  A    between atoms: _257  and  _259
REMARK  111  A    between atoms: _259  and  _260
REMARK  112  A    between atoms: _262  and  _264
REMARK  113  A    between atoms: _264  and  _265
REMARK  114  A    between atoms: _264  and  _267
REMARK  115  A    between atoms: _267  and  _268
REMARK  116  A    between atoms: _271  and  _273
REMARK  117  A    between atoms: _273  and  _274
REMARK  118  A    between atoms: _273  and  _276
REMARK  119  A    between atoms: _279  and  _281
REMARK  120  A    between atoms: _281  and  _282
REMARK  121  A    between atoms: _281  and  _284
REMARK  122  A    between atoms: _284  and  _285
REMARK  123  A    between atoms: _288  and  _290
REMARK  124  A    between atoms: _290  and  _291
REMARK  125  A    between atoms: _290  and  _293
REMARK  126  A    between atoms: _293  and  _294
REMARK  127  A    between atoms: _294  and  _295
REMARK  128  A    between atoms: _295  and  _296
REMARK  129  A    between atoms: _296  and  _297
REMARK  130  A    between atoms: _301  and  _303
REMARK  131  A    between atoms: _303  and  _304
REMARK  132  A    between atoms: _303  and  _306
REMARK  133  A    between atoms: _306  and  _307
REMARK  134  A    between atoms: _307  and  _308
REMARK  135  A    between atoms: _313  and  _315
REMARK  136  A    between atoms: _315  and  _316
REMARK  137  A    between atoms: _315  and  _318
REMARK  138  A    between atoms: _318  and  _319
REMARK  139  A    between atoms: _326  and  _327
REMARK  140  A    between atoms: _332  and  _334
REMARK  141  A    between atoms: _334  and  _335
REMARK  142  A    between atoms: _334  and  _337
REMARK  143  A    between atoms: _337  and  _338
REMARK  144  A    between atoms: _348  and  _350
REMARK  145  A    between atoms: _350  and  _351
REMARK  146  A    between atoms: _354  and  _356
REMARK  147  A    between atoms: _356  and  _357
REMARK  148  A    between atoms: _356  and  _359
REMARK  149  A    between atoms: _359  and  _360
REMARK  150  A    between atoms: _363  and  _365
REMARK  151  A    between atoms: _365  and  _366
REMARK                            x       y       z     vdW  Elec       q    Type
REMARK                         _______ _______ _______ _____ _____    ______ ____
ROOT
ATOM      1  O   HOH     1      27.701  21.192  17.001  0.00  0.00    +0.000 OA
ENDROOT
TORSDOF 0
REMARK  Name = ../refined-set-2016/4cc5/4cc5_pocket.pdb
REMARK  151 active torsions:
REMARK  status: ('A' for Active; 'I' for Inactive)
REMARK    1  A    between atoms: _1  and  _3
REMARK    2  A    between atoms: _3  and  _4
REMARK    3  A    between atoms: _3  and  _6
REMARK    4  A    between atoms: _6  and  _7
REMARK    5  A    between atoms: _7  and  _8
REMARK    6  A    between atoms: _10  and  _12
REMARK    7  A    between atoms: _12  and  _13
REMARK    8  A    between atoms: _12  and  _15
REMARK    9  A    between atoms: _15  and  _16
REMARK   10  A    between atoms: _19  and  _21
REMARK   11  A    between atoms: _21  and  _22
REMARK   12  A    between atoms: _21  and  _24
REMARK   13  A    between atoms: _24  and  _25
REMARK   14  A    between atoms: _27  and  _29
REMARK   15  A    between atoms: _29  and  _30
REMARK   16  A    between atoms: _29  and  _32
REMARK   17  A    between atoms: _32  and  _33
REMARK   18  A    between atoms: _36  and  _38
REMARK   19  A    between atoms: _38  and  _39
REMARK   20  A    between atoms: _38  and  _41
REMARK   21  A    between atoms: _41  and  _42
REMARK   22  A    between atoms: _42  and  _43
REMARK   23  A    between atoms: _45  and  _47
REMARK   24  A    between atoms: _47  and  _48
REMARK   25  A    between atoms: _47  and  _50
REMARK   26  A    between atoms: _52  and  _54
REMARK   27  A    between atoms: _54  and  _55
REMARK   28  A    between atoms: _54  and  _57
REMARK   29  A    between atoms: _57  and  _58
REMARK   30  A    between atoms: _58  and  _59
REMARK   31  A    between atoms: _62  and  _64
REMARK   32  A    between atoms: _64  and  _65
REMARK   33  A    between atoms: _64  and  _67
REMARK   34  A    between atoms: _67  and  _68
REMARK   35  A    between atoms: _71  and  _73
REMARK   36  A    between atoms: _73  and  _74
REMARK   37  A    between atoms: _73  and  _76
REMARK   38  A    between atoms: _76  and  _77
REMARK   39  A    between atoms: _77  and  _78
REMARK   40  A    between atoms: _78  and  _79
REMARK   41  A    between atoms: _79  and  _80
REMARK   42  A    between atoms: _84  and  _86
REMARK   43  A    between atoms: _86  and  _87
REMARK   44  A    between atoms: _86  and  _89
REMARK   45  A    between atoms: _89  and  _90
REMARK   46  A    between atoms: _93  and  _95
REMARK   47  A    between atoms: _95  and  _96
REMARK   48  A    between atoms: _99  and  _101
REMARK   49  A    between atoms: _101  and  _102
REMARK   50  A    between atoms: _101  and  _104
REMARK   51  A    between atoms: _104  and  _105
REMARK   52  A    between atoms: _105  and  _106
REMARK   53  A    between atoms: _106  and  _107
REMARK   54  A    between atoms: _116  and  _118
REMARK   55  A    between atoms: _118  and  _119
REMARK   56  A    between atoms: _118  and  _121
REMARK   57  A    between atoms: _121  and  _122
REMARK   58  A    between atoms: _122  and  _123
REMARK   59  A    between atoms: _123  and  _124
REMARK   60  A    between atoms: _133  and  _135
REMARK   61  A    between atoms: _135  and  _136
REMARK   62  A    between atoms: _138  and  _140
REMARK   63  A    between atoms: _140  and  _141
REMARK   64  A    between atoms: _140  and  _143
REMARK   65  A    between atoms: _143  and  _144
REMARK   66  A    between atoms: _144  and  _145
REMARK   67  A    between atoms: _148  and  _150
REMARK   68  A    between atoms: _150  and  _151
REMARK   69  A    between atoms: _150  and  _153
REMARK   70  A    between atoms: _153  and  _154
REMARK   71  A    between atoms: _160  and  _162
REMARK   72  A    between atoms: _162  and  _163
REMARK   73  A    between atoms: _162  and  _165
REMARK   74  A    between atoms: _165  and  _166
REMARK   75  A    between atoms: _169  and  _171
REMARK   76  A    between atoms: _171  and  _172
REMARK   77  A    between atoms: _171  and  _174
REMARK   78  A    between atoms: _174  and  _175
REMARK   79  A    between atoms: _180  and  _181
REMARK   80  A    between atoms: _183  and  _185
REMARK   81  A    between atoms: _185  and  _186
REMARK   82  A    between atoms: _185  and  _188
REMARK   83  A    between atoms: _188  and  _189
REMARK   84  A    between atoms: _191  and  _193
REMARK   85  A    between atoms: _193  and  _194
REMARK   86  A    between atoms: _193  and  _196
REMARK   87  A    between atoms: _199  and  _201
REMARK   88  A    between atoms: _201  and  _202
REMARK   89  A    between atoms: _201  and  _204
REMARK   90  A    between atoms: _204  and  _205
REMARK   91  A    between atoms: _205  and  _206
REMARK   92  A    between atoms: _211  and  _213
REMARK   93  A    between atoms: _213  and  _214
REMARK   94  A    between atoms: _213  and  _216
REMARK   95  A    between atoms: _216  and  _217
REMARK   96  A    between atoms: _220  and  _222
REMARK   97  A    between atoms: _222  and  _223
REMARK   98  A    between atoms: _222  and  _225
REMARK   99  A    between atoms: _225  and  _226
REMARK  100  A    between atoms: _231  and  _233
REMARK  101  A    between atoms: _233  and  _234
REMARK  102  A    between atoms: _233  and  _236
REMARK  103  A    between atoms: _236  and  _237
REMARK  104  A    between atoms: _237  and  _238
REMARK  105  A    between atoms: _238  and  _239
REMARK  106  A    between atoms: _248  and  _250
REMARK  107  A    between atoms: _250  and  _251
REMARK  108  A    between atoms: _250  and  _253
REMARK  109  A    between atoms: _253  and  _254
REMARK  110  A    between atoms: _257  and  _259
REMARK  111  A    between atoms: _259  and  _260
REMARK  112  A    between atoms: _262  and  _264
REMARK  113  A    between atoms: _264  and  _265
REMARK  114  A    between atoms: _264  and  _267
REMARK  115  A    between atoms: _267  and  _268
REMARK  116  A    between atoms: _271  and  _273
REMARK  117  A    between atoms: _273  and  _274
REMARK  118  A    between atoms: _273  and  _276
REMARK  119  A    between atoms: _279  and  _281
REMARK  120  A    between atoms: _281  and  _282
REMARK  121  A    between atoms: _281  and  _284
REMARK  122  A    between atoms: _284  and  _285
REMARK  123  A    between atoms: _288  and  _290
REMARK  124  A    between atoms: _290  and  _291
REMARK  125  A    between atoms: _290  and  _293
REMARK  126  A    between atoms: _293  and  _294
REMARK  127  A    between atoms: _294  and  _295
REMARK  128  A    between atoms: _295  and  _296
REMARK  129  A    between atoms: _296  and  _297
REMARK  130  A    between atoms: _301  and  _303
REMARK  131  A    between atoms: _303  and  _304
REMARK  132  A    between atoms: _303  and  _306
REMARK  133  A    between atoms: _306  and  _307
REMARK  134  A    between atoms: _307  and  _308
REMARK  135  A    between atoms: _313  and  _315
REMARK  136  A    between atoms: _315  and  _316
REMARK  137  A    between atoms: _315  and  _318
REMARK  138  A    between atoms: _318  and  _319
REMARK  139  A    between atoms: _326  and  _327
REMARK  140  A    between atoms: _332  and  _334
REMARK  141  A    between atoms: _334  and  _335
REMARK  142  A    between atoms: _334  and  _337
REMARK  143  A    between atoms: _337  and  _338
REMARK  144  A    between atoms: _348  and  _350
REMARK  145  A    between atoms: _350  and  _351
REMARK  146  A    between atoms: _354  and  _356
REMARK  147  A    between atoms: _356  and  _357
REMARK  148  A    between atoms: _356  and  _359
REMARK  149  A    between atoms: _359  and  _360
REMARK  150  A    between atoms: _363  and  _365
REMARK  151  A    between atoms: _365  and  _366
REMARK                            x       y       z     vdW  Elec       q    Type
REMARK                         _______ _______ _______ _____ _____    ______ ____
ROOT
ATOM      1  O   HOH     1      21.636  20.012   6.882  0.00  0.00    +0.000 OA
ENDROOT
TORSDOF 0
REMARK  Name = ../refined-set-2016/4cc5/4cc5_pocket.pdb
REMARK  151 active torsions:
REMARK  status: ('A' for Active; 'I' for Inactive)
REMARK    1  A    between atoms: _1  and  _3
REMARK    2  A    between atoms: _3  and  _4
REMARK    3  A    between atoms: _3  and  _6
REMARK    4  A    between atoms: _6  and  _7
REMARK    5  A    between atoms: _7  and  _8
REMARK    6  A    between atoms: _10  and  _12
REMARK    7  A    between atoms: _12  and  _13
REMARK    8  A    between atoms: _12  and  _15
REMARK    9  A    between atoms: _15  and  _16
REMARK   10  A    between atoms: _19  and  _21
REMARK   11  A    between atoms: _21  and  _22
REMARK   12  A    between atoms: _21  and  _24
REMARK   13  A    between atoms: _24  and  _25
REMARK   14  A    between atoms: _27  and  _29
REMARK   15  A    between atoms: _29  and  _30
REMARK   16  A    between atoms: _29  and  _32
REMARK   17  A    between atoms: _32  and  _33
REMARK   18  A    between atoms: _36  and  _38
REMARK   19  A    between atoms: _38  and  _39
REMARK   20  A    between atoms: _38  and  _41
REMARK   21  A    between atoms: _41  and  _42
REMARK   22  A    between atoms: _42  and  _43
REMARK   23  A    between atoms: _45  and  _47
REMARK   24  A    between atoms: _47  and  _48
REMARK   25  A    between atoms: _47  and  _50
REMARK   26  A    between atoms: _52  and  _54
REMARK   27  A    between atoms: _54  and  _55
REMARK   28  A    between atoms: _54  and  _57
REMARK   29  A    between atoms: _57  and  _58
REMARK   30  A    between atoms: _58  and  _59
REMARK   31  A    between atoms: _62  and  _64
REMARK   32  A    between atoms: _64  and  _65
REMARK   33  A    between atoms: _64  and  _67
REMARK   34  A    between atoms: _67  and  _68
REMARK   35  A    between atoms: _71  and  _73
REMARK   36  A    between atoms: _73  and  _74
REMARK   37  A    between atoms: _73  and  _76
REMARK   38  A    between atoms: _76  and  _77
REMARK   39  A    between atoms: _77  and  _78
REMARK   40  A    between atoms: _78  and  _79
REMARK   41  A    between atoms: _79  and  _80
REMARK   42  A    between atoms: _84  and  _86
REMARK   43  A    between atoms: _86  and  _87
REMARK   44  A    between atoms: _86  and  _89
REMARK   45  A    between atoms: _89  and  _90
REMARK   46  A    between atoms: _93  and  _95
REMARK   47  A    between atoms: _95  and  _96
REMARK   48  A    between atoms: _99  and  _101
REMARK   49  A    between atoms: _101  and  _102
REMARK   50  A    between atoms: _101  and  _104
REMARK   51  A    between atoms: _104  and  _105
REMARK   52  A    between atoms: _105  and  _106
REMARK   53  A    between atoms: _106  and  _107
REMARK   54  A    between atoms: _116  and  _118
REMARK   55  A    between atoms: _118  and  _119
REMARK   56  A    between atoms: _118  and  _121
REMARK   57  A    between atoms: _121  and  _122
REMARK   58  A    between atoms: _122  and  _123
REMARK   59  A    between atoms: _123  and  _124
REMARK   60  A    between atoms: _133  and  _135
REMARK   61  A    between atoms: _135  and  _136
REMARK   62  A    between atoms: _138  and  _140
REMARK   63  A    between atoms: _140  and  _141
REMARK   64  A    between atoms: _140  and  _143
REMARK   65  A    between atoms: _143  and  _144
REMARK   66  A    between atoms: _144  and  _145
REMARK   67  A    between atoms: _148  and  _150
REMARK   68  A    between atoms: _150  and  _151
REMARK   69  A    between atoms: _150  and  _153
REMARK   70  A    between atoms: _153  and  _154
REMARK   71  A    between atoms: _160  and  _162
REMARK   72  A    between atoms: _162  and  _163
REMARK   73  A    between atoms: _162  and  _165
REMARK   74  A    between atoms: _165  and  _166
REMARK   75  A    between atoms: _169  and  _171
REMARK   76  A    between atoms: _171  and  _172
REMARK   77  A    between atoms: _171  and  _174
REMARK   78  A    between atoms: _174  and  _175
REMARK   79  A    between atoms: _180  and  _181
REMARK   80  A    between atoms: _183  and  _185
REMARK   81  A    between atoms: _185  and  _186
REMARK   82  A    between atoms: _185  and  _188
REMARK   83  A    between atoms: _188  and  _189
REMARK   84  A    between atoms: _191  and  _193
REMARK   85  A    between atoms: _193  and  _194
REMARK   86  A    between atoms: _193  and  _196
REMARK   87  A    between atoms: _199  and  _201
REMARK   88  A    between atoms: _201  and  _202
REMARK   89  A    between atoms: _201  and  _204
REMARK   90  A    between atoms: _204  and  _205
REMARK   91  A    between atoms: _205  and  _206
REMARK   92  A    between atoms: _211  and  _213
REMARK   93  A    between atoms: _213  and  _214
REMARK   94  A    between atoms: _213  and  _216
REMARK   95  A    between atoms: _216  and  _217
REMARK   96  A    between atoms: _220  and  _222
REMARK   97  A    between atoms: _222  and  _223
REMARK   98  A    between atoms: _222  and  _225
REMARK   99  A    between atoms: _225  and  _226
REMARK  100  A    between atoms: _231  and  _233
REMARK  101  A    between atoms: _233  and  _234
REMARK  102  A    between atoms: _233  and  _236
REMARK  103  A    between atoms: _236  and  _237
REMARK  104  A    between atoms: _237  and  _238
REMARK  105  A    between atoms: _238  and  _239
REMARK  106  A    between atoms: _248  and  _250
REMARK  107  A    between atoms: _250  and  _251
REMARK  108  A    between atoms: _250  and  _253
REMARK  109  A    between atoms: _253  and  _254
REMARK  110  A    between atoms: _257  and  _259
REMARK  111  A    between atoms: _259  and  _260
REMARK  112  A    between atoms: _262  and  _264
REMARK  113  A    between atoms: _264  and  _265
REMARK  114  A    between atoms: _264  and  _267
REMARK  115  A    between atoms: _267  and  _268
REMARK  116  A    between atoms: _271  and  _273
REMARK  117  A    between atoms: _273  and  _274
REMARK  118  A    between atoms: _273  and  _276
REMARK  119  A    between atoms: _279  and  _281
REMARK  120  A    between atoms: _281  and  _282
REMARK  121  A    between atoms: _281  and  _284
REMARK  122  A    between atoms: _284  and  _285
REMARK  123  A    between atoms: _288  and  _290
REMARK  124  A    between atoms: _290  and  _291
REMARK  125  A    between atoms: _290  and  _293
REMARK  126  A    between atoms: _293  and  _294
REMARK  127  A    between atoms: _294  and  _295
REMARK  128  A    between atoms: _295  and  _296
REMARK  129  A    between atoms: _296  and  _297
REMARK  130  A    between atoms: _301  and  _303
REMARK  131  A    between atoms: _303  and  _304
REMARK  132  A    between atoms: _303  and  _306
REMARK  133  A    between atoms: _306  and  _307
REMARK  134  A    between atoms: _307  and  _308
REMARK  135  A    between atoms: _313  and  _315
REMARK  136  A    between atoms: _315  and  _316
REMARK  137  A    between atoms: _315  and  _318
REMARK  138  A    between atoms: _318  and  _319
REMARK  139  A    between atoms: _326  and  _327
REMARK  140  A    between atoms: _332  and  _334
REMARK  141  A    between atoms: _334  and  _335
REMARK  142  A    between atoms: _334  and  _337
REMARK  143  A    between atoms: _337  and  _338
REMARK  144  A    between atoms: _348  and  _350
REMARK  145  A    between atoms: _350  and  _351
REMARK  146  A    between atoms: _354  and  _356
REMARK  147  A    between atoms: _356  and  _357
REMARK  148  A    between atoms: _356  and  _359
REMARK  149  A    between atoms: _359  and  _360
REMARK  150  A    between atoms: _363  and  _365
REMARK  151  A    between atoms: _365  and  _366
REMARK                            x       y       z     vdW  Elec       q    Type
REMARK                         _______ _______ _______ _____ _____    ______ ____
ROOT
ATOM      1  O   HOH     1      25.054  17.785   0.560  0.00  0.00    +0.000 OA
ENDROOT
TORSDOF 0
REMARK  Name = ../refined-set-2016/4cc5/4cc5_pocket.pdb
REMARK  151 active torsions:
REMARK  status: ('A' for Active; 'I' for Inactive)
REMARK    1  A    between atoms: _1  and  _3
REMARK    2  A    between atoms: _3  and  _4
REMARK    3  A    between atoms: _3  and  _6
REMARK    4  A    between atoms: _6  and  _7
REMARK    5  A    between atoms: _7  and  _8
REMARK    6  A    between atoms: _10  and  _12
REMARK    7  A    between atoms: _12  and  _13
REMARK    8  A    between atoms: _12  and  _15
REMARK    9  A    between atoms: _15  and  _16
REMARK   10  A    between atoms: _19  and  _21
REMARK   11  A    between atoms: _21  and  _22
REMARK   12  A    between atoms: _21  and  _24
REMARK   13  A    between atoms: _24  and  _25
REMARK   14  A    between atoms: _27  and  _29
REMARK   15  A    between atoms: _29  and  _30
REMARK   16  A    between atoms: _29  and  _32
REMARK   17  A    between atoms: _32  and  _33
REMARK   18  A    between atoms: _36  and  _38
REMARK   19  A    between atoms: _38  and  _39
REMARK   20  A    between atoms: _38  and  _41
REMARK   21  A    between atoms: _41  and  _42
REMARK   22  A    between atoms: _42  and  _43
REMARK   23  A    between atoms: _45  and  _47
REMARK   24  A    between atoms: _47  and  _48
REMARK   25  A    between atoms: _47  and  _50
REMARK   26  A    between atoms: _52  and  _54
REMARK   27  A    between atoms: _54  and  _55
REMARK   28  A    between atoms: _54  and  _57
REMARK   29  A    between atoms: _57  and  _58
REMARK   30  A    between atoms: _58  and  _59
REMARK   31  A    between atoms: _62  and  _64
REMARK   32  A    between atoms: _64  and  _65
REMARK   33  A    between atoms: _64  and  _67
REMARK   34  A    between atoms: _67  and  _68
REMARK   35  A    between atoms: _71  and  _73
REMARK   36  A    between atoms: _73  and  _74
REMARK   37  A    between atoms: _73  and  _76
REMARK   38  A    between atoms: _76  and  _77
REMARK   39  A    between atoms: _77  and  _78
REMARK   40  A    between atoms: _78  and  _79
REMARK   41  A    between atoms: _79  and  _80
REMARK   42  A    between atoms: _84  and  _86
REMARK   43  A    between atoms: _86  and  _87
REMARK   44  A    between atoms: _86  and  _89
REMARK   45  A    between atoms: _89  and  _90
REMARK   46  A    between atoms: _93  and  _95
REMARK   47  A    between atoms: _95  and  _96
REMARK   48  A    between atoms: _99  and  _101
REMARK   49  A    between atoms: _101  and  _102
REMARK   50  A    between atoms: _101  and  _104
REMARK   51  A    between atoms: _104  and  _105
REMARK   52  A    between atoms: _105  and  _106
REMARK   53  A    between atoms: _106  and  _107
REMARK   54  A    between atoms: _116  and  _118
REMARK   55  A    between atoms: _118  and  _119
REMARK   56  A    between atoms: _118  and  _121
REMARK   57  A    between atoms: _121  and  _122
REMARK   58  A    between atoms: _122  and  _123
REMARK   59  A    between atoms: _123  and  _124
REMARK   60  A    between atoms: _133  and  _135
REMARK   61  A    between atoms: _135  and  _136
REMARK   62  A    between atoms: _138  and  _140
REMARK   63  A    between atoms: _140  and  _141
REMARK   64  A    between atoms: _140  and  _143
REMARK   65  A    between atoms: _143  and  _144
REMARK   66  A    between atoms: _144  and  _145
REMARK   67  A    between atoms: _148  and  _150
REMARK   68  A    between atoms: _150  and  _151
REMARK   69  A    between atoms: _150  and  _153
REMARK   70  A    between atoms: _153  and  _154
REMARK   71  A    between atoms: _160  and  _162
REMARK   72  A    between atoms: _162  and  _163
REMARK   73  A    between atoms: _162  and  _165
REMARK   74  A    between atoms: _165  and  _166
REMARK   75  A    between atoms: _169  and  _171
REMARK   76  A    between atoms: _171  and  _172
REMARK   77  A    between atoms: _171  and  _174
REMARK   78  A    between atoms: _174  and  _175
REMARK   79  A    between atoms: _180  and  _181
REMARK   80  A    between atoms: _183  and  _185
REMARK   81  A    between atoms: _185  and  _186
REMARK   82  A    between atoms: _185  and  _188
REMARK   83  A    between atoms: _188  and  _189
REMARK   84  A    between atoms: _191  and  _193
REMARK   85  A    between atoms: _193  and  _194
REMARK   86  A    between atoms: _193  and  _196
REMARK   87  A    between atoms: _199  and  _201
REMARK   88  A    between atoms: _201  and  _202
REMARK   89  A    between atoms: _201  and  _204
REMARK   90  A    between atoms: _204  and  _205
REMARK   91  A    between atoms: _205  and  _206
REMARK   92  A    between atoms: _211  and  _213
REMARK   93  A    between atoms: _213  and  _214
REMARK   94  A    between atoms: _213  and  _216
REMARK   95  A    between atoms: _216  and  _217
REMARK   96  A    between atoms: _220  and  _222
REMARK   97  A    between atoms: _222  and  _223
REMARK   98  A    between atoms: _222  and  _225
REMARK   99  A    between atoms: _225  and  _226
REMARK  100  A    between atoms: _231  and  _233
REMARK  101  A    between atoms: _233  and  _234
REMARK  102  A    between atoms: _233  and  _236
REMARK  103  A    between atoms: _236  and  _237
REMARK  104  A    between atoms: _237  and  _238
REMARK  105  A    between atoms: _238  and  _239
REMARK  106  A    between atoms: _248  and  _250
REMARK  107  A    between atoms: _250  and  _251
REMARK  108  A    between atoms: _250  and  _253
REMARK  109  A    between atoms: _253  and  _254
REMARK  110  A    between atoms: _257  and  _259
REMARK  111  A    between atoms: _259  and  _260
REMARK  112  A    between atoms: _262  and  _264
REMARK  113  A    between atoms: _264  and  _265
REMARK  114  A    between atoms: _264  and  _267
REMARK  115  A    between atoms: _267  and  _268
REMARK  116  A    between atoms: _271  and  _273
REMARK  117  A    between atoms: _273  and  _274
REMARK  118  A    between atoms: _273  and  _276
REMARK  119  A    between atoms: _279  and  _281
REMARK  120  A    between atoms: _281  and  _282
REMARK  121  A    between atoms: _281  and  _284
REMARK  122  A    between atoms: _284  and  _285
REMARK  123  A    between atoms: _288  and  _290
REMARK  124  A    between atoms: _290  and  _291
REMARK  125  A    between atoms: _290  and  _293
REMARK  126  A    between atoms: _293  and  _294
REMARK  127  A    between atoms: _294  and  _295
REMARK  128  A    between atoms: _295  and  _296
REMARK  129  A    between atoms: _296  and  _297
REMARK  130  A    between atoms: _301  and  _303
REMARK  131  A    between atoms: _303  and  _304
REMARK  132  A    between atoms: _303  and  _306
REMARK  133  A    between atoms: _306  and  _307
REMARK  134  A    between atoms: _307  and  _308
REMARK  135  A    between atoms: _313  and  _315
REMARK  136  A    between atoms: _315  and  _316
REMARK  137  A    between atoms: _315  and  _318
REMARK  138  A    between atoms: _318  and  _319
REMARK  139  A    between atoms: _326  and  _327
REMARK  140  A    between atoms: _332  and  _334
REMARK  141  A    between atoms: _334  and  _335
REMARK  142  A    between atoms: _334  and  _337
REMARK  143  A    between atoms: _337  and  _338
REMARK  144  A    between atoms: _348  and  _350
REMARK  145  A    between atoms: _350  and  _351
REMARK  146  A    between atoms: _354  and  _356
REMARK  147  A    between atoms: _356  and  _357
REMARK  148  A    between atoms: _356  and  _359
REMARK  149  A    between atoms: _359  and  _360
REMARK  150  A    between atoms: _363  and  _365
REMARK  151  A    between atoms: _365  and  _366
REMARK                            x       y       z     vdW  Elec       q    Type
REMARK                         _______ _______ _______ _____ _____    ______ ____
ROOT
ATOM      1  O   HOH     1      29.243  15.041   6.123  0.00  0.00    +0.000 OA
ENDROOT
TORSDOF 0
REMARK  Name = ../refined-set-2016/4cc5/4cc5_pocket.pdb
REMARK  151 active torsions:
REMARK  status: ('A' for Active; 'I' for Inactive)
REMARK    1  A    between atoms: _1  and  _3
REMARK    2  A    between atoms: _3  and  _4
REMARK    3  A    between atoms: _3  and  _6
REMARK    4  A    between atoms: _6  and  _7
REMARK    5  A    between atoms: _7  and  _8
REMARK    6  A    between atoms: _10  and  _12
REMARK    7  A    between atoms: _12  and  _13
REMARK    8  A    between atoms: _12  and  _15
REMARK    9  A    between atoms: _15  and  _16
REMARK   10  A    between atoms: _19  and  _21
REMARK   11  A    between atoms: _21  and  _22
REMARK   12  A    between atoms: _21  and  _24
REMARK   13  A    between atoms: _24  and  _25
REMARK   14  A    between atoms: _27  and  _29
REMARK   15  A    between atoms: _29  and  _30
REMARK   16  A    between atoms: _29  and  _32
REMARK   17  A    between atoms: _32  and  _33
REMARK   18  A    between atoms: _36  and  _38
REMARK   19  A    between atoms: _38  and  _39
REMARK   20  A    between atoms: _38  and  _41
REMARK   21  A    between atoms: _41  and  _42
REMARK   22  A    between atoms: _42  and  _43
REMARK   23  A    between atoms: _45  and  _47
REMARK   24  A    between atoms: _47  and  _48
REMARK   25  A    between atoms: _47  and  _50
REMARK   26  A    between atoms: _52  and  _54
REMARK   27  A    between atoms: _54  and  _55
REMARK   28  A    between atoms: _54  and  _57
REMARK   29  A    between atoms: _57  and  _58
REMARK   30  A    between atoms: _58  and  _59
REMARK   31  A    between atoms: _62  and  _64
REMARK   32  A    between atoms: _64  and  _65
REMARK   33  A    between atoms: _64  and  _67
REMARK   34  A    between atoms: _67  and  _68
REMARK   35  A    between atoms: _71  and  _73
REMARK   36  A    between atoms: _73  and  _74
REMARK   37  A    between atoms: _73  and  _76
REMARK   38  A    between atoms: _76  and  _77
REMARK   39  A    between atoms: _77  and  _78
REMARK   40  A    between atoms: _78  and  _79
REMARK   41  A    between atoms: _79  and  _80
REMARK   42  A    between atoms: _84  and  _86
REMARK   43  A    between atoms: _86  and  _87
REMARK   44  A    between atoms: _86  and  _89
REMARK   45  A    between atoms: _89  and  _90
REMARK   46  A    between atoms: _93  and  _95
REMARK   47  A    between atoms: _95  and  _96
REMARK   48  A    between atoms: _99  and  _101
REMARK   49  A    between atoms: _101  and  _102
REMARK   50  A    between atoms: _101  and  _104
REMARK   51  A    between atoms: _104  and  _105
REMARK   52  A    between atoms: _105  and  _106
REMARK   53  A    between atoms: _106  and  _107
REMARK   54  A    between atoms: _116  and  _118
REMARK   55  A    between atoms: _118  and  _119
REMARK   56  A    between atoms: _118  and  _121
REMARK   57  A    between atoms: _121  and  _122
REMARK   58  A    between atoms: _122  and  _123
REMARK   59  A    between atoms: _123  and  _124
REMARK   60  A    between atoms: _133  and  _135
REMARK   61  A    between atoms: _135  and  _136
REMARK   62  A    between atoms: _138  and  _140
REMARK   63  A    between atoms: _140  and  _141
REMARK   64  A    between atoms: _140  and  _143
REMARK   65  A    between atoms: _143  and  _144
REMARK   66  A    between atoms: _144  and  _145
REMARK   67  A    between atoms: _148  and  _150
REMARK   68  A    between atoms: _150  and  _151
REMARK   69  A    between atoms: _150  and  _153
REMARK   70  A    between atoms: _153  and  _154
REMARK   71  A    between atoms: _160  and  _162
REMARK   72  A    between atoms: _162  and  _163
REMARK   73  A    between atoms: _162  and  _165
REMARK   74  A    between atoms: _165  and  _166
REMARK   75  A    between atoms: _169  and  _171
REMARK   76  A    between atoms: _171  and  _172
REMARK   77  A    between atoms: _171  and  _174
REMARK   78  A    between atoms: _174  and  _175
REMARK   79  A    between atoms: _180  and  _181
REMARK   80  A    between atoms: _183  and  _185
REMARK   81  A    between atoms: _185  and  _186
REMARK   82  A    between atoms: _185  and  _188
REMARK   83  A    between atoms: _188  and  _189
REMARK   84  A    between atoms: _191  and  _193
REMARK   85  A    between atoms: _193  and  _194
REMARK   86  A    between atoms: _193  and  _196
REMARK   87  A    between atoms: _199  and  _201
REMARK   88  A    between atoms: _201  and  _202
REMARK   89  A    between atoms: _201  and  _204
REMARK   90  A    between atoms: _204  and  _205
REMARK   91  A    between atoms: _205  and  _206
REMARK   92  A    between atoms: _211  and  _213
REMARK   93  A    between atoms: _213  and  _214
REMARK   94  A    between atoms: _213  and  _216
REMARK   95  A    between atoms: _216  and  _217
REMARK   96  A    between atoms: _220  and  _222
REMARK   97  A    between atoms: _222  and  _223
REMARK   98  A    between atoms: _222  and  _225
REMARK   99  A    between atoms: _225  and  _226
REMARK  100  A    between atoms: _231  and  _233
REMARK  101  A    between atoms: _233  and  _234
REMARK  102  A    between atoms: _233  and  _236
REMARK  103  A    between atoms: _236  and  _237
REMARK  104  A    between atoms: _237  and  _238
REMARK  105  A    between atoms: _238  and  _239
REMARK  106  A    between atoms: _248  and  _250
REMARK  107  A    between atoms: _250  and  _251
REMARK  108  A    between atoms: _250  and  _253
REMARK  109  A    between atoms: _253  and  _254
REMARK  110  A    between atoms: _257  and  _259
REMARK  111  A    between atoms: _259  and  _260
REMARK  112  A    between atoms: _262  and  _264
REMARK  113  A    between atoms: _264  and  _265
REMARK  114  A    between atoms: _264  and  _267
REMARK  115  A    between atoms: _267  and  _268
REMARK  116  A    between atoms: _271  and  _273
REMARK  117  A    between atoms: _273  and  _274
REMARK  118  A    between atoms: _273  and  _276
REMARK  119  A    between atoms: _279  and  _281
REMARK  120  A    between atoms: _281  and  _282
REMARK  121  A    between atoms: _281  and  _284
REMARK  122  A    between atoms: _284  and  _285
REMARK  123  A    between atoms: _288  and  _290
REMARK  124  A    between atoms: _290  and  _291
REMARK  125  A    between atoms: _290  and  _293
REMARK  126  A    between atoms: _293  and  _294
REMARK  127  A    between atoms: _294  and  _295
REMARK  128  A    between atoms: _295  and  _296
REMARK  129  A    between atoms: _296  and  _297
REMARK  130  A    between atoms: _301  and  _303
REMARK  131  A    between atoms: _303  and  _304
REMARK  132  A    between atoms: _303  and  _306
REMARK  133  A    between atoms: _306  and  _307
REMARK  134  A    between atoms: _307  and  _308
REMARK  135  A    between atoms: _313  and  _315
REMARK  136  A    between atoms: _315  and  _316
REMARK  137  A    between atoms: _315  and  _318
REMARK  138  A    between atoms: _318  and  _319
REMARK  139  A    between atoms: _326  and  _327
REMARK  140  A    between atoms: _332  and  _334
REMARK  141  A    between atoms: _334  and  _335
REMARK  142  A    between atoms: _334  and  _337
REMARK  143  A    between atoms: _337  and  _338
REMARK  144  A    between atoms: _348  and  _350
REMARK  145  A    between atoms: _350  and  _351
REMARK  146  A    between atoms: _354  and  _356
REMARK  147  A    between atoms: _356  and  _357
REMARK  148  A    between atoms: _356  and  _359
REMARK  149  A    between atoms: _359  and  _360
REMARK  150  A    between atoms: _363  and  _365
REMARK  151  A    between atoms: _365  and  _366
REMARK                            x       y       z     vdW  Elec       q    Type
REMARK                         _______ _______ _______ _____ _____    ______ ____
ROOT
ATOM      1  O   HOH     1      31.164  20.634   1.660  0.00  0.00    +0.000 OA
ENDROOT
TORSDOF 0
REMARK  Name = ../refined-set-2016/4cc5/4cc5_pocket.pdb
REMARK  151 active torsions:
REMARK  status: ('A' for Active; 'I' for Inactive)
REMARK    1  A    between atoms: _1  and  _3
REMARK    2  A    between atoms: _3  and  _4
REMARK    3  A    between atoms: _3  and  _6
REMARK    4  A    between atoms: _6  and  _7
REMARK    5  A    between atoms: _7  and  _8
REMARK    6  A    between atoms: _10  and  _12
REMARK    7  A    between atoms: _12  and  _13
REMARK    8  A    between atoms: _12  and  _15
REMARK    9  A    between atoms: _15  and  _16
REMARK   10  A    between atoms: _19  and  _21
REMARK   11  A    between atoms: _21  and  _22
REMARK   12  A    between atoms: _21  and  _24
REMARK   13  A    between atoms: _24  and  _25
REMARK   14  A    between atoms: _27  and  _29
REMARK   15  A    between atoms: _29  and  _30
REMARK   16  A    between atoms: _29  and  _32
REMARK   17  A    between atoms: _32  and  _33
REMARK   18  A    between atoms: _36  and  _38
REMARK   19  A    between atoms: _38  and  _39
REMARK   20  A    between atoms: _38  and  _41
REMARK   21  A    between atoms: _41  and  _42
REMARK   22  A    between atoms: _42  and  _43
REMARK   23  A    between atoms: _45  and  _47
REMARK   24  A    between atoms: _47  and  _48
REMARK   25  A    between atoms: _47  and  _50
REMARK   26  A    between atoms: _52  and  _54
REMARK   27  A    between atoms: _54  and  _55
REMARK   28  A    between atoms: _54  and  _57
REMARK   29  A    between atoms: _57  and  _58
REMARK   30  A    between atoms: _58  and  _59
REMARK   31  A    between atoms: _62  and  _64
REMARK   32  A    between atoms: _64  and  _65
REMARK   33  A    between atoms: _64  and  _67
REMARK   34  A    between atoms: _67  and  _68
REMARK   35  A    between atoms: _71  and  _73
REMARK   36  A    between atoms: _73  and  _74
REMARK   37  A    between atoms: _73  and  _76
REMARK   38  A    between atoms: _76  and  _77
REMARK   39  A    between atoms: _77  and  _78
REMARK   40  A    between atoms: _78  and  _79
REMARK   41  A    between atoms: _79  and  _80
REMARK   42  A    between atoms: _84  and  _86
REMARK   43  A    between atoms: _86  and  _87
REMARK   44  A    between atoms: _86  and  _89
REMARK   45  A    between atoms: _89  and  _90
REMARK   46  A    between atoms: _93  and  _95
REMARK   47  A    between atoms: _95  and  _96
REMARK   48  A    between atoms: _99  and  _101
REMARK   49  A    between atoms: _101  and  _102
REMARK   50  A    between atoms: _101  and  _104
REMARK   51  A    between atoms: _104  and  _105
REMARK   52  A    between atoms: _105  and  _106
REMARK   53  A    between atoms: _106  and  _107
REMARK   54  A    between atoms: _116  and  _118
REMARK   55  A    between atoms: _118  and  _119
REMARK   56  A    between atoms: _118  and  _121
REMARK   57  A    between atoms: _121  and  _122
REMARK   58  A    between atoms: _122  and  _123
REMARK   59  A    between atoms: _123  and  _124
REMARK   60  A    between atoms: _133  and  _135
REMARK   61  A    between atoms: _135  and  _136
REMARK   62  A    between atoms: _138  and  _140
REMARK   63  A    between atoms: _140  and  _141
REMARK   64  A    between atoms: _140  and  _143
REMARK   65  A    between atoms: _143  and  _144
REMARK   66  A    between atoms: _144  and  _145
REMARK   67  A    between atoms: _148  and  _150
REMARK   68  A    between atoms: _150  and  _151
REMARK   69  A    between atoms: _150  and  _153
REMARK   70  A    between atoms: _153  and  _154
REMARK   71  A    between atoms: _160  and  _162
REMARK   72  A    between atoms: _162  and  _163
REMARK   73  A    between atoms: _162  and  _165
REMARK   74  A    between atoms: _165  and  _166
REMARK   75  A    between atoms: _169  and  _171
REMARK   76  A    between atoms: _171  and  _172
REMARK   77  A    between atoms: _171  and  _174
REMARK   78  A    between atoms: _174  and  _175
REMARK   79  A    between atoms: _180  and  _181
REMARK   80  A    between atoms: _183  and  _185
REMARK   81  A    between atoms: _185  and  _186
REMARK   82  A    between atoms: _185  and  _188
REMARK   83  A    between atoms: _188  and  _189
REMARK   84  A    between atoms: _191  and  _193
REMARK   85  A    between atoms: _193  and  _194
REMARK   86  A    between atoms: _193  and  _196
REMARK   87  A    between atoms: _199  and  _201
REMARK   88  A    between atoms: _201  and  _202
REMARK   89  A    between atoms: _201  and  _204
REMARK   90  A    between atoms: _204  and  _205
REMARK   91  A    between atoms: _205  and  _206
REMARK   92  A    between atoms: _211  and  _213
REMARK   93  A    between atoms: _213  and  _214
REMARK   94  A    between atoms: _213  and  _216
REMARK   95  A    between atoms: _216  and  _217
REMARK   96  A    between atoms: _220  and  _222
REMARK   97  A    between atoms: _222  and  _223
REMARK   98  A    between atoms: _222  and  _225
REMARK   99  A    between atoms: _225  and  _226
REMARK  100  A    between atoms: _231  and  _233
REMARK  101  A    between atoms: _233  and  _234
REMARK  102  A    between atoms: _233  and  _236
REMARK  103  A    between atoms: _236  and  _237
REMARK  104  A    between atoms: _237  and  _238
REMARK  105  A    between atoms: _238  and  _239
REMARK  106  A    between atoms: _248  and  _250
REMARK  107  A    between atoms: _250  and  _251
REMARK  108  A    between atoms: _250  and  _253
REMARK  109  A    between atoms: _253  and  _254
REMARK  110  A    between atoms: _257  and  _259
REMARK  111  A    between atoms: _259  and  _260
REMARK  112  A    between atoms: _262  and  _264
REMARK  113  A    between atoms: _264  and  _265
REMARK  114  A    between atoms: _264  and  _267
REMARK  115  A    between atoms: _267  and  _268
REMARK  116  A    between atoms: _271  and  _273
REMARK  117  A    between atoms: _273  and  _274
REMARK  118  A    between atoms: _273  and  _276
REMARK  119  A    between atoms: _279  and  _281
REMARK  120  A    between atoms: _281  and  _282
REMARK  121  A    between atoms: _281  and  _284
REMARK  122  A    between atoms: _284  and  _285
REMARK  123  A    between atoms: _288  and  _290
REMARK  124  A    between atoms: _290  and  _291
REMARK  125  A    between atoms: _290  and  _293
REMARK  126  A    between atoms: _293  and  _294
REMARK  127  A    between atoms: _294  and  _295
REMARK  128  A    between atoms: _295  and  _296
REMARK  129  A    between atoms: _296  and  _297
REMARK  130  A    between atoms: _301  and  _303
REMARK  131  A    between atoms: _303  and  _304
REMARK  132  A    between atoms: _303  and  _306
REMARK  133  A    between atoms: _306  and  _307
REMARK  134  A    between atoms: _307  and  _308
REMARK  135  A    between atoms: _313  and  _315
REMARK  136  A    between atoms: _315  and  _316
REMARK  137  A    between atoms: _315  and  _318
REMARK  138  A    between atoms: _318  and  _319
REMARK  139  A    between atoms: _326  and  _327
REMARK  140  A    between atoms: _332  and  _334
REMARK  141  A    between atoms: _334  and  _335
REMARK  142  A    between atoms: _334  and  _337
REMARK  143  A    between atoms: _337  and  _338
REMARK  144  A    between atoms: _348  and  _350
REMARK  145  A    between atoms: _350  and  _351
REMARK  146  A    between atoms: _354  and  _356
REMARK  147  A    between atoms: _356  and  _357
REMARK  148  A    between atoms: _356  and  _359
REMARK  149  A    between atoms: _359  and  _360
REMARK  150  A    between atoms: _363  and  _365
REMARK  151  A    between atoms: _365  and  _366
REMARK                            x       y       z     vdW  Elec       q    Type
REMARK                         _______ _______ _______ _____ _____    ______ ____
ROOT
ATOM      1  O   HOH     1      31.007  25.637  10.834  0.00  0.00    +0.000 OA
ENDROOT
TORSDOF 0
REMARK  Name = ../refined-set-2016/4cc5/4cc5_pocket.pdb
REMARK  151 active torsions:
REMARK  status: ('A' for Active; 'I' for Inactive)
REMARK    1  A    between atoms: _1  and  _3
REMARK    2  A    between atoms: _3  and  _4
REMARK    3  A    between atoms: _3  and  _6
REMARK    4  A    between atoms: _6  and  _7
REMARK    5  A    between atoms: _7  and  _8
REMARK    6  A    between atoms: _10  and  _12
REMARK    7  A    between atoms: _12  and  _13
REMARK    8  A    between atoms: _12  and  _15
REMARK    9  A    between atoms: _15  and  _16
REMARK   10  A    between atoms: _19  and  _21
REMARK   11  A    between atoms: _21  and  _22
REMARK   12  A    between atoms: _21  and  _24
REMARK   13  A    between atoms: _24  and  _25
REMARK   14  A    between atoms: _27  and  _29
REMARK   15  A    between atoms: _29  and  _30
REMARK   16  A    between atoms: _29  and  _32
REMARK   17  A    between atoms: _32  and  _33
REMARK   18  A    between atoms: _36  and  _38
REMARK   19  A    between atoms: _38  and  _39
REMARK   20  A    between atoms: _38  and  _41
REMARK   21  A    between atoms: _41  and  _42
REMARK   22  A    between atoms: _42  and  _43
REMARK   23  A    between atoms: _45  and  _47
REMARK   24  A    between atoms: _47  and  _48
REMARK   25  A    between atoms: _47  and  _50
REMARK   26  A    between atoms: _52  and  _54
REMARK   27  A    between atoms: _54  and  _55
REMARK   28  A    between atoms: _54  and  _57
REMARK   29  A    between atoms: _57  and  _58
REMARK   30  A    between atoms: _58  and  _59
REMARK   31  A    between atoms: _62  and  _64
REMARK   32  A    between atoms: _64  and  _65
REMARK   33  A    between atoms: _64  and  _67
REMARK   34  A    between atoms: _67  and  _68
REMARK   35  A    between atoms: _71  and  _73
REMARK   36  A    between atoms: _73  and  _74
REMARK   37  A    between atoms: _73  and  _76
REMARK   38  A    between atoms: _76  and  _77
REMARK   39  A    between atoms: _77  and  _78
REMARK   40  A    between atoms: _78  and  _79
REMARK   41  A    between atoms: _79  and  _80
REMARK   42  A    between atoms: _84  and  _86
REMARK   43  A    between atoms: _86  and  _87
REMARK   44  A    between atoms: _86  and  _89
REMARK   45  A    between atoms: _89  and  _90
REMARK   46  A    between atoms: _93  and  _95
REMARK   47  A    between atoms: _95  and  _96
REMARK   48  A    between atoms: _99  and  _101
REMARK   49  A    between atoms: _101  and  _102
REMARK   50  A    between atoms: _101  and  _104
REMARK   51  A    between atoms: _104  and  _105
REMARK   52  A    between atoms: _105  and  _106
REMARK   53  A    between atoms: _106  and  _107
REMARK   54  A    between atoms: _116  and  _118
REMARK   55  A    between atoms: _118  and  _119
REMARK   56  A    between atoms: _118  and  _121
REMARK   57  A    between atoms: _121  and  _122
REMARK   58  A    between atoms: _122  and  _123
REMARK   59  A    between atoms: _123  and  _124
REMARK   60  A    between atoms: _133  and  _135
REMARK   61  A    between atoms: _135  and  _136
REMARK   62  A    between atoms: _138  and  _140
REMARK   63  A    between atoms: _140  and  _141
REMARK   64  A    between atoms: _140  and  _143
REMARK   65  A    between atoms: _143  and  _144
REMARK   66  A    between atoms: _144  and  _145
REMARK   67  A    between atoms: _148  and  _150
REMARK   68  A    between atoms: _150  and  _151
REMARK   69  A    between atoms: _150  and  _153
REMARK   70  A    between atoms: _153  and  _154
REMARK   71  A    between atoms: _160  and  _162
REMARK   72  A    between atoms: _162  and  _163
REMARK   73  A    between atoms: _162  and  _165
REMARK   74  A    between atoms: _165  and  _166
REMARK   75  A    between atoms: _169  and  _171
REMARK   76  A    between atoms: _171  and  _172
REMARK   77  A    between atoms: _171  and  _174
REMARK   78  A    between atoms: _174  and  _175
REMARK   79  A    between atoms: _180  and  _181
REMARK   80  A    between atoms: _183  and  _185
REMARK   81  A    between atoms: _185  and  _186
REMARK   82  A    between atoms: _185  and  _188
REMARK   83  A    between atoms: _188  and  _189
REMARK   84  A    between atoms: _191  and  _193
REMARK   85  A    between atoms: _193  and  _194
REMARK   86  A    between atoms: _193  and  _196
REMARK   87  A    between atoms: _199  and  _201
REMARK   88  A    between atoms: _201  and  _202
REMARK   89  A    between atoms: _201  and  _204
REMARK   90  A    between atoms: _204  and  _205
REMARK   91  A    between atoms: _205  and  _206
REMARK   92  A    between atoms: _211  and  _213
REMARK   93  A    between atoms: _213  and  _214
REMARK   94  A    between atoms: _213  and  _216
REMARK   95  A    between atoms: _216  and  _217
REMARK   96  A    between atoms: _220  and  _222
REMARK   97  A    between atoms: _222  and  _223
REMARK   98  A    between atoms: _222  and  _225
REMARK   99  A    between atoms: _225  and  _226
REMARK  100  A    between atoms: _231  and  _233
REMARK  101  A    between atoms: _233  and  _234
REMARK  102  A    between atoms: _233  and  _236
REMARK  103  A    between atoms: _236  and  _237
REMARK  104  A    between atoms: _237  and  _238
REMARK  105  A    between atoms: _238  and  _239
REMARK  106  A    between atoms: _248  and  _250
REMARK  107  A    between atoms: _250  and  _251
REMARK  108  A    between atoms: _250  and  _253
REMARK  109  A    between atoms: _253  and  _254
REMARK  110  A    between atoms: _257  and  _259
REMARK  111  A    between atoms: _259  and  _260
REMARK  112  A    between atoms: _262  and  _264
REMARK  113  A    between atoms: _264  and  _265
REMARK  114  A    between atoms: _264  and  _267
REMARK  115  A    between atoms: _267  and  _268
REMARK  116  A    between atoms: _271  and  _273
REMARK  117  A    between atoms: _273  and  _274
REMARK  118  A    between atoms: _273  and  _276
REMARK  119  A    between atoms: _279  and  _281
REMARK  120  A    between atoms: _281  and  _282
REMARK  121  A    between atoms: _281  and  _284
REMARK  122  A    between atoms: _284  and  _285
REMARK  123  A    between atoms: _288  and  _290
REMARK  124  A    between atoms: _290  and  _291
REMARK  125  A    between atoms: _290  and  _293
REMARK  126  A    between atoms: _293  and  _294
REMARK  127  A    between atoms: _294  and  _295
REMARK  128  A    between atoms: _295  and  _296
REMARK  129  A    between atoms: _296  and  _297
REMARK  130  A    between atoms: _301  and  _303
REMARK  131  A    between atoms: _303  and  _304
REMARK  132  A    between atoms: _303  and  _306
REMARK  133  A    between atoms: _306  and  _307
REMARK  134  A    between atoms: _307  and  _308
REMARK  135  A    between atoms: _313  and  _315
REMARK  136  A    between atoms: _315  and  _316
REMARK  137  A    between atoms: _315  and  _318
REMARK  138  A    between atoms: _318  and  _319
REMARK  139  A    between atoms: _326  and  _327
REMARK  140  A    between atoms: _332  and  _334
REMARK  141  A    between atoms: _334  and  _335
REMARK  142  A    between atoms: _334  and  _337
REMARK  143  A    between atoms: _337  and  _338
REMARK  144  A    between atoms: _348  and  _350
REMARK  145  A    between atoms: _350  and  _351
REMARK  146  A    between atoms: _354  and  _356
REMARK  147  A    between atoms: _356  and  _357
REMARK  148  A    between atoms: _356  and  _359
REMARK  149  A    between atoms: _359  and  _360
REMARK  150  A    between atoms: _363  and  _365
REMARK  151  A    between atoms: _365  and  _366
REMARK                            x       y       z     vdW  Elec       q    Type
REMARK                         _______ _______ _______ _____ _____    ______ ____
ROOT
ATOM      1  O   HOH     1      26.742  25.435  12.053  0.00  0.00    +0.000 OA
ENDROOT
TORSDOF 0
REMARK  Name = ../refined-set-2016/4cc5/4cc5_pocket.pdb
REMARK  151 active torsions:
REMARK  status: ('A' for Active; 'I' for Inactive)
REMARK    1  A    between atoms: _1  and  _3
REMARK    2  A    between atoms: _3  and  _4
REMARK    3  A    between atoms: _3  and  _6
REMARK    4  A    between atoms: _6  and  _7
REMARK    5  A    between atoms: _7  and  _8
REMARK    6  A    between atoms: _10  and  _12
REMARK    7  A    between atoms: _12  and  _13
REMARK    8  A    between atoms: _12  and  _15
REMARK    9  A    between atoms: _15  and  _16
REMARK   10  A    between atoms: _19  and  _21
REMARK   11  A    between atoms: _21  and  _22
REMARK   12  A    between atoms: _21  and  _24
REMARK   13  A    between atoms: _24  and  _25
REMARK   14  A    between atoms: _27  and  _29
REMARK   15  A    between atoms: _29  and  _30
REMARK   16  A    between atoms: _29  and  _32
REMARK   17  A    between atoms: _32  and  _33
REMARK   18  A    between atoms: _36  and  _38
REMARK   19  A    between atoms: _38  and  _39
REMARK   20  A    between atoms: _38  and  _41
REMARK   21  A    between atoms: _41  and  _42
REMARK   22  A    between atoms: _42  and  _43
REMARK   23  A    between atoms: _45  and  _47
REMARK   24  A    between atoms: _47  and  _48
REMARK   25  A    between atoms: _47  and  _50
REMARK   26  A    between atoms: _52  and  _54
REMARK   27  A    between atoms: _54  and  _55
REMARK   28  A    between atoms: _54  and  _57
REMARK   29  A    between atoms: _57  and  _58
REMARK   30  A    between atoms: _58  and  _59
REMARK   31  A    between atoms: _62  and  _64
REMARK   32  A    between atoms: _64  and  _65
REMARK   33  A    between atoms: _64  and  _67
REMARK   34  A    between atoms: _67  and  _68
REMARK   35  A    between atoms: _71  and  _73
REMARK   36  A    between atoms: _73  and  _74
REMARK   37  A    between atoms: _73  and  _76
REMARK   38  A    between atoms: _76  and  _77
REMARK   39  A    between atoms: _77  and  _78
REMARK   40  A    between atoms: _78  and  _79
REMARK   41  A    between atoms: _79  and  _80
REMARK   42  A    between atoms: _84  and  _86
REMARK   43  A    between atoms: _86  and  _87
REMARK   44  A    between atoms: _86  and  _89
REMARK   45  A    between atoms: _89  and  _90
REMARK   46  A    between atoms: _93  and  _95
REMARK   47  A    between atoms: _95  and  _96
REMARK   48  A    between atoms: _99  and  _101
REMARK   49  A    between atoms: _101  and  _102
REMARK   50  A    between atoms: _101  and  _104
REMARK   51  A    between atoms: _104  and  _105
REMARK   52  A    between atoms: _105  and  _106
REMARK   53  A    between atoms: _106  and  _107
REMARK   54  A    between atoms: _116  and  _118
REMARK   55  A    between atoms: _118  and  _119
REMARK   56  A    between atoms: _118  and  _121
REMARK   57  A    between atoms: _121  and  _122
REMARK   58  A    between atoms: _122  and  _123
REMARK   59  A    between atoms: _123  and  _124
REMARK   60  A    between atoms: _133  and  _135
REMARK   61  A    between atoms: _135  and  _136
REMARK   62  A    between atoms: _138  and  _140
REMARK   63  A    between atoms: _140  and  _141
REMARK   64  A    between atoms: _140  and  _143
REMARK   65  A    between atoms: _143  and  _144
REMARK   66  A    between atoms: _144  and  _145
REMARK   67  A    between atoms: _148  and  _150
REMARK   68  A    between atoms: _150  and  _151
REMARK   69  A    between atoms: _150  and  _153
REMARK   70  A    between atoms: _153  and  _154
REMARK   71  A    between atoms: _160  and  _162
REMARK   72  A    between atoms: _162  and  _163
REMARK   73  A    between atoms: _162  and  _165
REMARK   74  A    between atoms: _165  and  _166
REMARK   75  A    between atoms: _169  and  _171
REMARK   76  A    between atoms: _171  and  _172
REMARK   77  A    between atoms: _171  and  _174
REMARK   78  A    between atoms: _174  and  _175
REMARK   79  A    between atoms: _180  and  _181
REMARK   80  A    between atoms: _183  and  _185
REMARK   81  A    between atoms: _185  and  _186
REMARK   82  A    between atoms: _185  and  _188
REMARK   83  A    between atoms: _188  and  _189
REMARK   84  A    between atoms: _191  and  _193
REMARK   85  A    between atoms: _193  and  _194
REMARK   86  A    between atoms: _193  and  _196
REMARK   87  A    between atoms: _199  and  _201
REMARK   88  A    between atoms: _201  and  _202
REMARK   89  A    between atoms: _201  and  _204
REMARK   90  A    between atoms: _204  and  _205
REMARK   91  A    between atoms: _205  and  _206
REMARK   92  A    between atoms: _211  and  _213
REMARK   93  A    between atoms: _213  and  _214
REMARK   94  A    between atoms: _213  and  _216
REMARK   95  A    between atoms: _216  and  _217
REMARK   96  A    between atoms: _220  and  _222
REMARK   97  A    between atoms: _222  and  _223
REMARK   98  A    between atoms: _222  and  _225
REMARK   99  A    between atoms: _225  and  _226
REMARK  100  A    between atoms: _231  and  _233
REMARK  101  A    between atoms: _233  and  _234
REMARK  102  A    between atoms: _233  and  _236
REMARK  103  A    between atoms: _236  and  _237
REMARK  104  A    between atoms: _237  and  _238
REMARK  105  A    between atoms: _238  and  _239
REMARK  106  A    between atoms: _248  and  _250
REMARK  107  A    between atoms: _250  and  _251
REMARK  108  A    between atoms: _250  and  _253
REMARK  109  A    between atoms: _253  and  _254
REMARK  110  A    between atoms: _257  and  _259
REMARK  111  A    between atoms: _259  and  _260
REMARK  112  A    between atoms: _262  and  _264
REMARK  113  A    between atoms: _264  and  _265
REMARK  114  A    between atoms: _264  and  _267
REMARK  115  A    between atoms: _267  and  _268
REMARK  116  A    between atoms: _271  and  _273
REMARK  117  A    between atoms: _273  and  _274
REMARK  118  A    between atoms: _273  and  _276
REMARK  119  A    between atoms: _279  and  _281
REMARK  120  A    between atoms: _281  and  _282
REMARK  121  A    between atoms: _281  and  _284
REMARK  122  A    between atoms: _284  and  _285
REMARK  123  A    between atoms: _288  and  _290
REMARK  124  A    between atoms: _290  and  _291
REMARK  125  A    between atoms: _290  and  _293
REMARK  126  A    between atoms: _293  and  _294
REMARK  127  A    between atoms: _294  and  _295
REMARK  128  A    between atoms: _295  and  _296
REMARK  129  A    between atoms: _296  and  _297
REMARK  130  A    between atoms: _301  and  _303
REMARK  131  A    between atoms: _303  and  _304
REMARK  132  A    between atoms: _303  and  _306
REMARK  133  A    between atoms: _306  and  _307
REMARK  134  A    between atoms: _307  and  _308
REMARK  135  A    between atoms: _313  and  _315
REMARK  136  A    between atoms: _315  and  _316
REMARK  137  A    between atoms: _315  and  _318
REMARK  138  A    between atoms: _318  and  _319
REMARK  139  A    between atoms: _326  and  _327
REMARK  140  A    between atoms: _332  and  _334
REMARK  141  A    between atoms: _334  and  _335
REMARK  142  A    between atoms: _334  and  _337
REMARK  143  A    between atoms: _337  and  _338
REMARK  144  A    between atoms: _348  and  _350
REMARK  145  A    between atoms: _350  and  _351
REMARK  146  A    between atoms: _354  and  _356
REMARK  147  A    between atoms: _356  and  _357
REMARK  148  A    between atoms: _356  and  _359
REMARK  149  A    between atoms: _359  and  _360
REMARK  150  A    between atoms: _363  and  _365
REMARK  151  A    between atoms: _365  and  _366
REMARK                            x       y       z     vdW  Elec       q    Type
REMARK                         _______ _______ _______ _____ _____    ______ ____
ROOT
ATOM      1  O   HOH     1      28.959  24.917  17.190  0.00  0.00    +0.000 OA
ENDROOT
TORSDOF 0
REMARK  Name = ../refined-set-2016/4cc5/4cc5_pocket.pdb
REMARK  151 active torsions:
REMARK  status: ('A' for Active; 'I' for Inactive)
REMARK    1  A    between atoms: _1  and  _3
REMARK    2  A    between atoms: _3  and  _4
REMARK    3  A    between atoms: _3  and  _6
REMARK    4  A    between atoms: _6  and  _7
REMARK    5  A    between atoms: _7  and  _8
REMARK    6  A    between atoms: _10  and  _12
REMARK    7  A    between atoms: _12  and  _13
REMARK    8  A    between atoms: _12  and  _15
REMARK    9  A    between atoms: _15  and  _16
REMARK   10  A    between atoms: _19  and  _21
REMARK   11  A    between atoms: _21  and  _22
REMARK   12  A    between atoms: _21  and  _24
REMARK   13  A    between atoms: _24  and  _25
REMARK   14  A    between atoms: _27  and  _29
REMARK   15  A    between atoms: _29  and  _30
REMARK   16  A    between atoms: _29  and  _32
REMARK   17  A    between atoms: _32  and  _33
REMARK   18  A    between atoms: _36  and  _38
REMARK   19  A    between atoms: _38  and  _39
REMARK   20  A    between atoms: _38  and  _41
REMARK   21  A    between atoms: _41  and  _42
REMARK   22  A    between atoms: _42  and  _43
REMARK   23  A    between atoms: _45  and  _47
REMARK   24  A    between atoms: _47  and  _48
REMARK   25  A    between atoms: _47  and  _50
REMARK   26  A    between atoms: _52  and  _54
REMARK   27  A    between atoms: _54  and  _55
REMARK   28  A    between atoms: _54  and  _57
REMARK   29  A    between atoms: _57  and  _58
REMARK   30  A    between atoms: _58  and  _59
REMARK   31  A    between atoms: _62  and  _64
REMARK   32  A    between atoms: _64  and  _65
REMARK   33  A    between atoms: _64  and  _67
REMARK   34  A    between atoms: _67  and  _68
REMARK   35  A    between atoms: _71  and  _73
REMARK   36  A    between atoms: _73  and  _74
REMARK   37  A    between atoms: _73  and  _76
REMARK   38  A    between atoms: _76  and  _77
REMARK   39  A    between atoms: _77  and  _78
REMARK   40  A    between atoms: _78  and  _79
REMARK   41  A    between atoms: _79  and  _80
REMARK   42  A    between atoms: _84  and  _86
REMARK   43  A    between atoms: _86  and  _87
REMARK   44  A    between atoms: _86  and  _89
REMARK   45  A    between atoms: _89  and  _90
REMARK   46  A    between atoms: _93  and  _95
REMARK   47  A    between atoms: _95  and  _96
REMARK   48  A    between atoms: _99  and  _101
REMARK   49  A    between atoms: _101  and  _102
REMARK   50  A    between atoms: _101  and  _104
REMARK   51  A    between atoms: _104  and  _105
REMARK   52  A    between atoms: _105  and  _106
REMARK   53  A    between atoms: _106  and  _107
REMARK   54  A    between atoms: _116  and  _118
REMARK   55  A    between atoms: _118  and  _119
REMARK   56  A    between atoms: _118  and  _121
REMARK   57  A    between atoms: _121  and  _122
REMARK   58  A    between atoms: _122  and  _123
REMARK   59  A    between atoms: _123  and  _124
REMARK   60  A    between atoms: _133  and  _135
REMARK   61  A    between atoms: _135  and  _136
REMARK   62  A    between atoms: _138  and  _140
REMARK   63  A    between atoms: _140  and  _141
REMARK   64  A    between atoms: _140  and  _143
REMARK   65  A    between atoms: _143  and  _144
REMARK   66  A    between atoms: _144  and  _145
REMARK   67  A    between atoms: _148  and  _150
REMARK   68  A    between atoms: _150  and  _151
REMARK   69  A    between atoms: _150  and  _153
REMARK   70  A    between atoms: _153  and  _154
REMARK   71  A    between atoms: _160  and  _162
REMARK   72  A    between atoms: _162  and  _163
REMARK   73  A    between atoms: _162  and  _165
REMARK   74  A    between atoms: _165  and  _166
REMARK   75  A    between atoms: _169  and  _171
REMARK   76  A    between atoms: _171  and  _172
REMARK   77  A    between atoms: _171  and  _174
REMARK   78  A    between atoms: _174  and  _175
REMARK   79  A    between atoms: _180  and  _181
REMARK   80  A    between atoms: _183  and  _185
REMARK   81  A    between atoms: _185  and  _186
REMARK   82  A    between atoms: _185  and  _188
REMARK   83  A    between atoms: _188  and  _189
REMARK   84  A    between atoms: _191  and  _193
REMARK   85  A    between atoms: _193  and  _194
REMARK   86  A    between atoms: _193  and  _196
REMARK   87  A    between atoms: _199  and  _201
REMARK   88  A    between atoms: _201  and  _202
REMARK   89  A    between atoms: _201  and  _204
REMARK   90  A    between atoms: _204  and  _205
REMARK   91  A    between atoms: _205  and  _206
REMARK   92  A    between atoms: _211  and  _213
REMARK   93  A    between atoms: _213  and  _214
REMARK   94  A    between atoms: _213  and  _216
REMARK   95  A    between atoms: _216  and  _217
REMARK   96  A    between atoms: _220  and  _222
REMARK   97  A    between atoms: _222  and  _223
REMARK   98  A    between atoms: _222  and  _225
REMARK   99  A    between atoms: _225  and  _226
REMARK  100  A    between atoms: _231  and  _233
REMARK  101  A    between atoms: _233  and  _234
REMARK  102  A    between atoms: _233  and  _236
REMARK  103  A    between atoms: _236  and  _237
REMARK  104  A    between atoms: _237  and  _238
REMARK  105  A    between atoms: _238  and  _239
REMARK  106  A    between atoms: _248  and  _250
REMARK  107  A    between atoms: _250  and  _251
REMARK  108  A    between atoms: _250  and  _253
REMARK  109  A    between atoms: _253  and  _254
REMARK  110  A    between atoms: _257  and  _259
REMARK  111  A    between atoms: _259  and  _260
REMARK  112  A    between atoms: _262  and  _264
REMARK  113  A    between atoms: _264  and  _265
REMARK  114  A    between atoms: _264  and  _267
REMARK  115  A    between atoms: _267  and  _268
REMARK  116  A    between atoms: _271  and  _273
REMARK  117  A    between atoms: _273  and  _274
REMARK  118  A    between atoms: _273  and  _276
REMARK  119  A    between atoms: _279  and  _281
REMARK  120  A    between atoms: _281  and  _282
REMARK  121  A    between atoms: _281  and  _284
REMARK  122  A    between atoms: _284  and  _285
REMARK  123  A    between atoms: _288  and  _290
REMARK  124  A    between atoms: _290  and  _291
REMARK  125  A    between atoms: _290  and  _293
REMARK  126  A    between atoms: _293  and  _294
REMARK  127  A    between atoms: _294  and  _295
REMARK  128  A    between atoms: _295  and  _296
REMARK  129  A    between atoms: _296  and  _297
REMARK  130  A    between atoms: _301  and  _303
REMARK  131  A    between atoms: _303  and  _304
REMARK  132  A    between atoms: _303  and  _306
REMARK  133  A    between atoms: _306  and  _307
REMARK  134  A    between atoms: _307  and  _308
REMARK  135  A    between atoms: _313  and  _315
REMARK  136  A    between atoms: _315  and  _316
REMARK  137  A    between atoms: _315  and  _318
REMARK  138  A    between atoms: _318  and  _319
REMARK  139  A    between atoms: _326  and  _327
REMARK  140  A    between atoms: _332  and  _334
REMARK  141  A    between atoms: _334  and  _335
REMARK  142  A    between atoms: _334  and  _337
REMARK  143  A    between atoms: _337  and  _338
REMARK  144  A    between atoms: _348  and  _350
REMARK  145  A    between atoms: _350  and  _351
REMARK  146  A    between atoms: _354  and  _356
REMARK  147  A    between atoms: _356  and  _357
REMARK  148  A    between atoms: _356  and  _359
REMARK  149  A    between atoms: _359  and  _360
REMARK  150  A    between atoms: _363  and  _365
REMARK  151  A    between atoms: _365  and  _366
REMARK                            x       y       z     vdW  Elec       q    Type
REMARK                         _______ _______ _______ _____ _____    ______ ____
ROOT
ATOM      1  O   HOH     1      31.790  24.306  17.951  0.00  0.00    +0.000 OA
ENDROOT
TORSDOF 0
REMARK  Name = ../refined-set-2016/4cc5/4cc5_pocket.pdb
REMARK  151 active torsions:
REMARK  status: ('A' for Active; 'I' for Inactive)
REMARK    1  A    between atoms: _1  and  _3
REMARK    2  A    between atoms: _3  and  _4
REMARK    3  A    between atoms: _3  and  _6
REMARK    4  A    between atoms: _6  and  _7
REMARK    5  A    between atoms: _7  and  _8
REMARK    6  A    between atoms: _10  and  _12
REMARK    7  A    between atoms: _12  and  _13
REMARK    8  A    between atoms: _12  and  _15
REMARK    9  A    between atoms: _15  and  _16
REMARK   10  A    between atoms: _19  and  _21
REMARK   11  A    between atoms: _21  and  _22
REMARK   12  A    between atoms: _21  and  _24
REMARK   13  A    between atoms: _24  and  _25
REMARK   14  A    between atoms: _27  and  _29
REMARK   15  A    between atoms: _29  and  _30
REMARK   16  A    between atoms: _29  and  _32
REMARK   17  A    between atoms: _32  and  _33
REMARK   18  A    between atoms: _36  and  _38
REMARK   19  A    between atoms: _38  and  _39
REMARK   20  A    between atoms: _38  and  _41
REMARK   21  A    between atoms: _41  and  _42
REMARK   22  A    between atoms: _42  and  _43
REMARK   23  A    between atoms: _45  and  _47
REMARK   24  A    between atoms: _47  and  _48
REMARK   25  A    between atoms: _47  and  _50
REMARK   26  A    between atoms: _52  and  _54
REMARK   27  A    between atoms: _54  and  _55
REMARK   28  A    between atoms: _54  and  _57
REMARK   29  A    between atoms: _57  and  _58
REMARK   30  A    between atoms: _58  and  _59
REMARK   31  A    between atoms: _62  and  _64
REMARK   32  A    between atoms: _64  and  _65
REMARK   33  A    between atoms: _64  and  _67
REMARK   34  A    between atoms: _67  and  _68
REMARK   35  A    between atoms: _71  and  _73
REMARK   36  A    between atoms: _73  and  _74
REMARK   37  A    between atoms: _73  and  _76
REMARK   38  A    between atoms: _76  and  _77
REMARK   39  A    between atoms: _77  and  _78
REMARK   40  A    between atoms: _78  and  _79
REMARK   41  A    between atoms: _79  and  _80
REMARK   42  A    between atoms: _84  and  _86
REMARK   43  A    between atoms: _86  and  _87
REMARK   44  A    between atoms: _86  and  _89
REMARK   45  A    between atoms: _89  and  _90
REMARK   46  A    between atoms: _93  and  _95
REMARK   47  A    between atoms: _95  and  _96
REMARK   48  A    between atoms: _99  and  _101
REMARK   49  A    between atoms: _101  and  _102
REMARK   50  A    between atoms: _101  and  _104
REMARK   51  A    between atoms: _104  and  _105
REMARK   52  A    between atoms: _105  and  _106
REMARK   53  A    between atoms: _106  and  _107
REMARK   54  A    between atoms: _116  and  _118
REMARK   55  A    between atoms: _118  and  _119
REMARK   56  A    between atoms: _118  and  _121
REMARK   57  A    between atoms: _121  and  _122
REMARK   58  A    between atoms: _122  and  _123
REMARK   59  A    between atoms: _123  and  _124
REMARK   60  A    between atoms: _133  and  _135
REMARK   61  A    between atoms: _135  and  _136
REMARK   62  A    between atoms: _138  and  _140
REMARK   63  A    between atoms: _140  and  _141
REMARK   64  A    between atoms: _140  and  _143
REMARK   65  A    between atoms: _143  and  _144
REMARK   66  A    between atoms: _144  and  _145
REMARK   67  A    between atoms: _148  and  _150
REMARK   68  A    between atoms: _150  and  _151
REMARK   69  A    between atoms: _150  and  _153
REMARK   70  A    between atoms: _153  and  _154
REMARK   71  A    between atoms: _160  and  _162
REMARK   72  A    between atoms: _162  and  _163
REMARK   73  A    between atoms: _162  and  _165
REMARK   74  A    between atoms: _165  and  _166
REMARK   75  A    between atoms: _169  and  _171
REMARK   76  A    between atoms: _171  and  _172
REMARK   77  A    between atoms: _171  and  _174
REMARK   78  A    between atoms: _174  and  _175
REMARK   79  A    between atoms: _180  and  _181
REMARK   80  A    between atoms: _183  and  _185
REMARK   81  A    between atoms: _185  and  _186
REMARK   82  A    between atoms: _185  and  _188
REMARK   83  A    between atoms: _188  and  _189
REMARK   84  A    between atoms: _191  and  _193
REMARK   85  A    between atoms: _193  and  _194
REMARK   86  A    between atoms: _193  and  _196
REMARK   87  A    between atoms: _199  and  _201
REMARK   88  A    between atoms: _201  and  _202
REMARK   89  A    between atoms: _201  and  _204
REMARK   90  A    between atoms: _204  and  _205
REMARK   91  A    between atoms: _205  and  _206
REMARK   92  A    between atoms: _211  and  _213
REMARK   93  A    between atoms: _213  and  _214
REMARK   94  A    between atoms: _213  and  _216
REMARK   95  A    between atoms: _216  and  _217
REMARK   96  A    between atoms: _220  and  _222
REMARK   97  A    between atoms: _222  and  _223
REMARK   98  A    between atoms: _222  and  _225
REMARK   99  A    between atoms: _225  and  _226
REMARK  100  A    between atoms: _231  and  _233
REMARK  101  A    between atoms: _233  and  _234
REMARK  102  A    between atoms: _233  and  _236
REMARK  103  A    between atoms: _236  and  _237
REMARK  104  A    between atoms: _237  and  _238
REMARK  105  A    between atoms: _238  and  _239
REMARK  106  A    between atoms: _248  and  _250
REMARK  107  A    between atoms: _250  and  _251
REMARK  108  A    between atoms: _250  and  _253
REMARK  109  A    between atoms: _253  and  _254
REMARK  110  A    between atoms: _257  and  _259
REMARK  111  A    between atoms: _259  and  _260
REMARK  112  A    between atoms: _262  and  _264
REMARK  113  A    between atoms: _264  and  _265
REMARK  114  A    between atoms: _264  and  _267
REMARK  115  A    between atoms: _267  and  _268
REMARK  116  A    between atoms: _271  and  _273
REMARK  117  A    between atoms: _273  and  _274
REMARK  118  A    between atoms: _273  and  _276
REMARK  119  A    between atoms: _279  and  _281
REMARK  120  A    between atoms: _281  and  _282
REMARK  121  A    between atoms: _281  and  _284
REMARK  122  A    between atoms: _284  and  _285
REMARK  123  A    between atoms: _288  and  _290
REMARK  124  A    between atoms: _290  and  _291
REMARK  125  A    between atoms: _290  and  _293
REMARK  126  A    between atoms: _293  and  _294
REMARK  127  A    between atoms: _294  and  _295
REMARK  128  A    between atoms: _295  and  _296
REMARK  129  A    between atoms: _296  and  _297
REMARK  130  A    between atoms: _301  and  _303
REMARK  131  A    between atoms: _303  and  _304
REMARK  132  A    between atoms: _303  and  _306
REMARK  133  A    between atoms: _306  and  _307
REMARK  134  A    between atoms: _307  and  _308
REMARK  135  A    between atoms: _313  and  _315
REMARK  136  A    between atoms: _315  and  _316
REMARK  137  A    between atoms: _315  and  _318
REMARK  138  A    between atoms: _318  and  _319
REMARK  139  A    between atoms: _326  and  _327
REMARK  140  A    between atoms: _332  and  _334
REMARK  141  A    between atoms: _334  and  _335
REMARK  142  A    between atoms: _334  and  _337
REMARK  143  A    between atoms: _337  and  _338
REMARK  144  A    between atoms: _348  and  _350
REMARK  145  A    between atoms: _350  and  _351
REMARK  146  A    between atoms: _354  and  _356
REMARK  147  A    between atoms: _356  and  _357
REMARK  148  A    between atoms: _356  and  _359
REMARK  149  A    between atoms: _359  and  _360
REMARK  150  A    between atoms: _363  and  _365
REMARK  151  A    between atoms: _365  and  _366
REMARK                            x       y       z     vdW  Elec       q    Type
REMARK                         _______ _______ _______ _____ _____    ______ ____
ROOT
ATOM      1  O   HOH     1      30.233  21.560  17.468  0.00  0.00    +0.000 OA
ENDROOT
TORSDOF 0
REMARK  Name = ../refined-set-2016/4cc5/4cc5_pocket.pdb
REMARK  151 active torsions:
REMARK  status: ('A' for Active; 'I' for Inactive)
REMARK    1  A    between atoms: _1  and  _3
REMARK    2  A    between atoms: _3  and  _4
REMARK    3  A    between atoms: _3  and  _6
REMARK    4  A    between atoms: _6  and  _7
REMARK    5  A    between atoms: _7  and  _8
REMARK    6  A    between atoms: _10  and  _12
REMARK    7  A    between atoms: _12  and  _13
REMARK    8  A    between atoms: _12  and  _15
REMARK    9  A    between atoms: _15  and  _16
REMARK   10  A    between atoms: _19  and  _21
REMARK   11  A    between atoms: _21  and  _22
REMARK   12  A    between atoms: _21  and  _24
REMARK   13  A    between atoms: _24  and  _25
REMARK   14  A    between atoms: _27  and  _29
REMARK   15  A    between atoms: _29  and  _30
REMARK   16  A    between atoms: _29  and  _32
REMARK   17  A    between atoms: _32  and  _33
REMARK   18  A    between atoms: _36  and  _38
REMARK   19  A    between atoms: _38  and  _39
REMARK   20  A    between atoms: _38  and  _41
REMARK   21  A    between atoms: _41  and  _42
REMARK   22  A    between atoms: _42  and  _43
REMARK   23  A    between atoms: _45  and  _47
REMARK   24  A    between atoms: _47  and  _48
REMARK   25  A    between atoms: _47  and  _50
REMARK   26  A    between atoms: _52  and  _54
REMARK   27  A    between atoms: _54  and  _55
REMARK   28  A    between atoms: _54  and  _57
REMARK   29  A    between atoms: _57  and  _58
REMARK   30  A    between atoms: _58  and  _59
REMARK   31  A    between atoms: _62  and  _64
REMARK   32  A    between atoms: _64  and  _65
REMARK   33  A    between atoms: _64  and  _67
REMARK   34  A    between atoms: _67  and  _68
REMARK   35  A    between atoms: _71  and  _73
REMARK   36  A    between atoms: _73  and  _74
REMARK   37  A    between atoms: _73  and  _76
REMARK   38  A    between atoms: _76  and  _77
REMARK   39  A    between atoms: _77  and  _78
REMARK   40  A    between atoms: _78  and  _79
REMARK   41  A    between atoms: _79  and  _80
REMARK   42  A    between atoms: _84  and  _86
REMARK   43  A    between atoms: _86  and  _87
REMARK   44  A    between atoms: _86  and  _89
REMARK   45  A    between atoms: _89  and  _90
REMARK   46  A    between atoms: _93  and  _95
REMARK   47  A    between atoms: _95  and  _96
REMARK   48  A    between atoms: _99  and  _101
REMARK   49  A    between atoms: _101  and  _102
REMARK   50  A    between atoms: _101  and  _104
REMARK   51  A    between atoms: _104  and  _105
REMARK   52  A    between atoms: _105  and  _106
REMARK   53  A    between atoms: _106  and  _107
REMARK   54  A    between atoms: _116  and  _118
REMARK   55  A    between atoms: _118  and  _119
REMARK   56  A    between atoms: _118  and  _121
REMARK   57  A    between atoms: _121  and  _122
REMARK   58  A    between atoms: _122  and  _123
REMARK   59  A    between atoms: _123  and  _124
REMARK   60  A    between atoms: _133  and  _135
REMARK   61  A    between atoms: _135  and  _136
REMARK   62  A    between atoms: _138  and  _140
REMARK   63  A    between atoms: _140  and  _141
REMARK   64  A    between atoms: _140  and  _143
REMARK   65  A    between atoms: _143  and  _144
REMARK   66  A    between atoms: _144  and  _145
REMARK   67  A    between atoms: _148  and  _150
REMARK   68  A    between atoms: _150  and  _151
REMARK   69  A    between atoms: _150  and  _153
REMARK   70  A    between atoms: _153  and  _154
REMARK   71  A    between atoms: _160  and  _162
REMARK   72  A    between atoms: _162  and  _163
REMARK   73  A    between atoms: _162  and  _165
REMARK   74  A    between atoms: _165  and  _166
REMARK   75  A    between atoms: _169  and  _171
REMARK   76  A    between atoms: _171  and  _172
REMARK   77  A    between atoms: _171  and  _174
REMARK   78  A    between atoms: _174  and  _175
REMARK   79  A    between atoms: _180  and  _181
REMARK   80  A    between atoms: _183  and  _185
REMARK   81  A    between atoms: _185  and  _186
REMARK   82  A    between atoms: _185  and  _188
REMARK   83  A    between atoms: _188  and  _189
REMARK   84  A    between atoms: _191  and  _193
REMARK   85  A    between atoms: _193  and  _194
REMARK   86  A    between atoms: _193  and  _196
REMARK   87  A    between atoms: _199  and  _201
REMARK   88  A    between atoms: _201  and  _202
REMARK   89  A    between atoms: _201  and  _204
REMARK   90  A    between atoms: _204  and  _205
REMARK   91  A    between atoms: _205  and  _206
REMARK   92  A    between atoms: _211  and  _213
REMARK   93  A    between atoms: _213  and  _214
REMARK   94  A    between atoms: _213  and  _216
REMARK   95  A    between atoms: _216  and  _217
REMARK   96  A    between atoms: _220  and  _222
REMARK   97  A    between atoms: _222  and  _223
REMARK   98  A    between atoms: _222  and  _225
REMARK   99  A    between atoms: _225  and  _226
REMARK  100  A    between atoms: _231  and  _233
REMARK  101  A    between atoms: _233  and  _234
REMARK  102  A    between atoms: _233  and  _236
REMARK  103  A    between atoms: _236  and  _237
REMARK  104  A    between atoms: _237  and  _238
REMARK  105  A    between atoms: _238  and  _239
REMARK  106  A    between atoms: _248  and  _250
REMARK  107  A    between atoms: _250  and  _251
REMARK  108  A    between atoms: _250  and  _253
REMARK  109  A    between atoms: _253  and  _254
REMARK  110  A    between atoms: _257  and  _259
REMARK  111  A    between atoms: _259  and  _260
REMARK  112  A    between atoms: _262  and  _264
REMARK  113  A    between atoms: _264  and  _265
REMARK  114  A    between atoms: _264  and  _267
REMARK  115  A    between atoms: _267  and  _268
REMARK  116  A    between atoms: _271  and  _273
REMARK  117  A    between atoms: _273  and  _274
REMARK  118  A    between atoms: _273  and  _276
REMARK  119  A    between atoms: _279  and  _281
REMARK  120  A    between atoms: _281  and  _282
REMARK  121  A    between atoms: _281  and  _284
REMARK  122  A    between atoms: _284  and  _285
REMARK  123  A    between atoms: _288  and  _290
REMARK  124  A    between atoms: _290  and  _291
REMARK  125  A    between atoms: _290  and  _293
REMARK  126  A    between atoms: _293  and  _294
REMARK  127  A    between atoms: _294  and  _295
REMARK  128  A    between atoms: _295  and  _296
REMARK  129  A    between atoms: _296  and  _297
REMARK  130  A    between atoms: _301  and  _303
REMARK  131  A    between atoms: _303  and  _304
REMARK  132  A    between atoms: _303  and  _306
REMARK  133  A    between atoms: _306  and  _307
REMARK  134  A    between atoms: _307  and  _308
REMARK  135  A    between atoms: _313  and  _315
REMARK  136  A    between atoms: _315  and  _316
REMARK  137  A    between atoms: _315  and  _318
REMARK  138  A    between atoms: _318  and  _319
REMARK  139  A    between atoms: _326  and  _327
REMARK  140  A    between atoms: _332  and  _334
REMARK  141  A    between atoms: _334  and  _335
REMARK  142  A    between atoms: _334  and  _337
REMARK  143  A    between atoms: _337  and  _338
REMARK  144  A    between atoms: _348  and  _350
REMARK  145  A    between atoms: _350  and  _351
REMARK  146  A    between atoms: _354  and  _356
REMARK  147  A    between atoms: _356  and  _357
REMARK  148  A    between atoms: _356  and  _359
REMARK  149  A    between atoms: _359  and  _360
REMARK  150  A    between atoms: _363  and  _365
REMARK  151  A    between atoms: _365  and  _366
REMARK                            x       y       z     vdW  Elec       q    Type
REMARK                         _______ _______ _______ _____ _____    ______ ____
ROOT
ATOM      1  O   HOH     1      28.933  15.533   8.552  0.00  0.00    +0.000 OA
ENDROOT
TORSDOF 0
REMARK  Name = ../refined-set-2016/4cc5/4cc5_pocket.pdb
REMARK  151 active torsions:
REMARK  status: ('A' for Active; 'I' for Inactive)
REMARK    1  A    between atoms: _1  and  _3
REMARK    2  A    between atoms: _3  and  _4
REMARK    3  A    between atoms: _3  and  _6
REMARK    4  A    between atoms: _6  and  _7
REMARK    5  A    between atoms: _7  and  _8
REMARK    6  A    between atoms: _10  and  _12
REMARK    7  A    between atoms: _12  and  _13
REMARK    8  A    between atoms: _12  and  _15
REMARK    9  A    between atoms: _15  and  _16
REMARK   10  A    between atoms: _19  and  _21
REMARK   11  A    between atoms: _21  and  _22
REMARK   12  A    between atoms: _21  and  _24
REMARK   13  A    between atoms: _24  and  _25
REMARK   14  A    between atoms: _27  and  _29
REMARK   15  A    between atoms: _29  and  _30
REMARK   16  A    between atoms: _29  and  _32
REMARK   17  A    between atoms: _32  and  _33
REMARK   18  A    between atoms: _36  and  _38
REMARK   19  A    between atoms: _38  and  _39
REMARK   20  A    between atoms: _38  and  _41
REMARK   21  A    between atoms: _41  and  _42
REMARK   22  A    between atoms: _42  and  _43
REMARK   23  A    between atoms: _45  and  _47
REMARK   24  A    between atoms: _47  and  _48
REMARK   25  A    between atoms: _47  and  _50
REMARK   26  A    between atoms: _52  and  _54
REMARK   27  A    between atoms: _54  and  _55
REMARK   28  A    between atoms: _54  and  _57
REMARK   29  A    between atoms: _57  and  _58
REMARK   30  A    between atoms: _58  and  _59
REMARK   31  A    between atoms: _62  and  _64
REMARK   32  A    between atoms: _64  and  _65
REMARK   33  A    between atoms: _64  and  _67
REMARK   34  A    between atoms: _67  and  _68
REMARK   35  A    between atoms: _71  and  _73
REMARK   36  A    between atoms: _73  and  _74
REMARK   37  A    between atoms: _73  and  _76
REMARK   38  A    between atoms: _76  and  _77
REMARK   39  A    between atoms: _77  and  _78
REMARK   40  A    between atoms: _78  and  _79
REMARK   41  A    between atoms: _79  and  _80
REMARK   42  A    between atoms: _84  and  _86
REMARK   43  A    between atoms: _86  and  _87
REMARK   44  A    between atoms: _86  and  _89
REMARK   45  A    between atoms: _89  and  _90
REMARK   46  A    between atoms: _93  and  _95
REMARK   47  A    between atoms: _95  and  _96
REMARK   48  A    between atoms: _99  and  _101
REMARK   49  A    between atoms: _101  and  _102
REMARK   50  A    between atoms: _101  and  _104
REMARK   51  A    between atoms: _104  and  _105
REMARK   52  A    between atoms: _105  and  _106
REMARK   53  A    between atoms: _106  and  _107
REMARK   54  A    between atoms: _116  and  _118
REMARK   55  A    between atoms: _118  and  _119
REMARK   56  A    between atoms: _118  and  _121
REMARK   57  A    between atoms: _121  and  _122
REMARK   58  A    between atoms: _122  and  _123
REMARK   59  A    between atoms: _123  and  _124
REMARK   60  A    between atoms: _133  and  _135
REMARK   61  A    between atoms: _135  and  _136
REMARK   62  A    between atoms: _138  and  _140
REMARK   63  A    between atoms: _140  and  _141
REMARK   64  A    between atoms: _140  and  _143
REMARK   65  A    between atoms: _143  and  _144
REMARK   66  A    between atoms: _144  and  _145
REMARK   67  A    between atoms: _148  and  _150
REMARK   68  A    between atoms: _150  and  _151
REMARK   69  A    between atoms: _150  and  _153
REMARK   70  A    between atoms: _153  and  _154
REMARK   71  A    between atoms: _160  and  _162
REMARK   72  A    between atoms: _162  and  _163
REMARK   73  A    between atoms: _162  and  _165
REMARK   74  A    between atoms: _165  and  _166
REMARK   75  A    between atoms: _169  and  _171
REMARK   76  A    between atoms: _171  and  _172
REMARK   77  A    between atoms: _171  and  _174
REMARK   78  A    between atoms: _174  and  _175
REMARK   79  A    between atoms: _180  and  _181
REMARK   80  A    between atoms: _183  and  _185
REMARK   81  A    between atoms: _185  and  _186
REMARK   82  A    between atoms: _185  and  _188
REMARK   83  A    between atoms: _188  and  _189
REMARK   84  A    between atoms: _191  and  _193
REMARK   85  A    between atoms: _193  and  _194
REMARK   86  A    between atoms: _193  and  _196
REMARK   87  A    between atoms: _199  and  _201
REMARK   88  A    between atoms: _201  and  _202
REMARK   89  A    between atoms: _201  and  _204
REMARK   90  A    between atoms: _204  and  _205
REMARK   91  A    between atoms: _205  and  _206
REMARK   92  A    between atoms: _211  and  _213
REMARK   93  A    between atoms: _213  and  _214
REMARK   94  A    between atoms: _213  and  _216
REMARK   95  A    between atoms: _216  and  _217
REMARK   96  A    between atoms: _220  and  _222
REMARK   97  A    between atoms: _222  and  _223
REMARK   98  A    between atoms: _222  and  _225
REMARK   99  A    between atoms: _225  and  _226
REMARK  100  A    between atoms: _231  and  _233
REMARK  101  A    between atoms: _233  and  _234
REMARK  102  A    between atoms: _233  and  _236
REMARK  103  A    between atoms: _236  and  _237
REMARK  104  A    between atoms: _237  and  _238
REMARK  105  A    between atoms: _238  and  _239
REMARK  106  A    between atoms: _248  and  _250
REMARK  107  A    between atoms: _250  and  _251
REMARK  108  A    between atoms: _250  and  _253
REMARK  109  A    between atoms: _253  and  _254
REMARK  110  A    between atoms: _257  and  _259
REMARK  111  A    between atoms: _259  and  _260
REMARK  112  A    between atoms: _262  and  _264
REMARK  113  A    between atoms: _264  and  _265
REMARK  114  A    between atoms: _264  and  _267
REMARK  115  A    between atoms: _267  and  _268
REMARK  116  A    between atoms: _271  and  _273
REMARK  117  A    between atoms: _273  and  _274
REMARK  118  A    between atoms: _273  and  _276
REMARK  119  A    between atoms: _279  and  _281
REMARK  120  A    between atoms: _281  and  _282
REMARK  121  A    between atoms: _281  and  _284
REMARK  122  A    between atoms: _284  and  _285
REMARK  123  A    between atoms: _288  and  _290
REMARK  124  A    between atoms: _290  and  _291
REMARK  125  A    between atoms: _290  and  _293
REMARK  126  A    between atoms: _293  and  _294
REMARK  127  A    between atoms: _294  and  _295
REMARK  128  A    between atoms: _295  and  _296
REMARK  129  A    between atoms: _296  and  _297
REMARK  130  A    between atoms: _301  and  _303
REMARK  131  A    between atoms: _303  and  _304
REMARK  132  A    between atoms: _303  and  _306
REMARK  133  A    between atoms: _306  and  _307
REMARK  134  A    between atoms: _307  and  _308
REMARK  135  A    between atoms: _313  and  _315
REMARK  136  A    between atoms: _315  and  _316
REMARK  137  A    between atoms: _315  and  _318
REMARK  138  A    between atoms: _318  and  _319
REMARK  139  A    between atoms: _326  and  _327
REMARK  140  A    between atoms: _332  and  _334
REMARK  141  A    between atoms: _334  and  _335
REMARK  142  A    between atoms: _334  and  _337
REMARK  143  A    between atoms: _337  and  _338
REMARK  144  A    between atoms: _348  and  _350
REMARK  145  A    between atoms: _350  and  _351
REMARK  146  A    between atoms: _354  and  _356
REMARK  147  A    between atoms: _356  and  _357
REMARK  148  A    between atoms: _356  and  _359
REMARK  149  A    between atoms: _359  and  _360
REMARK  150  A    between atoms: _363  and  _365
REMARK  151  A    between atoms: _365  and  _366
REMARK                            x       y       z     vdW  Elec       q    Type
REMARK                         _______ _______ _______ _____ _____    ______ ____
ROOT
ATOM      1  O   HOH     1      31.069  13.704  13.141  0.00  0.00    +0.000 OA
ENDROOT
TORSDOF 0
REMARK  Name = ../refined-set-2016/4cc5/4cc5_pocket.pdb
REMARK  151 active torsions:
REMARK  status: ('A' for Active; 'I' for Inactive)
REMARK    1  A    between atoms: _1  and  _3
REMARK    2  A    between atoms: _3  and  _4
REMARK    3  A    between atoms: _3  and  _6
REMARK    4  A    between atoms: _6  and  _7
REMARK    5  A    between atoms: _7  and  _8
REMARK    6  A    between atoms: _10  and  _12
REMARK    7  A    between atoms: _12  and  _13
REMARK    8  A    between atoms: _12  and  _15
REMARK    9  A    between atoms: _15  and  _16
REMARK   10  A    between atoms: _19  and  _21
REMARK   11  A    between atoms: _21  and  _22
REMARK   12  A    between atoms: _21  and  _24
REMARK   13  A    between atoms: _24  and  _25
REMARK   14  A    between atoms: _27  and  _29
REMARK   15  A    between atoms: _29  and  _30
REMARK   16  A    between atoms: _29  and  _32
REMARK   17  A    between atoms: _32  and  _33
REMARK   18  A    between atoms: _36  and  _38
REMARK   19  A    between atoms: _38  and  _39
REMARK   20  A    between atoms: _38  and  _41
REMARK   21  A    between atoms: _41  and  _42
REMARK   22  A    between atoms: _42  and  _43
REMARK   23  A    between atoms: _45  and  _47
REMARK   24  A    between atoms: _47  and  _48
REMARK   25  A    between atoms: _47  and  _50
REMARK   26  A    between atoms: _52  and  _54
REMARK   27  A    between atoms: _54  and  _55
REMARK   28  A    between atoms: _54  and  _57
REMARK   29  A    between atoms: _57  and  _58
REMARK   30  A    between atoms: _58  and  _59
REMARK   31  A    between atoms: _62  and  _64
REMARK   32  A    between atoms: _64  and  _65
REMARK   33  A    between atoms: _64  and  _67
REMARK   34  A    between atoms: _67  and  _68
REMARK   35  A    between atoms: _71  and  _73
REMARK   36  A    between atoms: _73  and  _74
REMARK   37  A    between atoms: _73  and  _76
REMARK   38  A    between atoms: _76  and  _77
REMARK   39  A    between atoms: _77  and  _78
REMARK   40  A    between atoms: _78  and  _79
REMARK   41  A    between atoms: _79  and  _80
REMARK   42  A    between atoms: _84  and  _86
REMARK   43  A    between atoms: _86  and  _87
REMARK   44  A    between atoms: _86  and  _89
REMARK   45  A    between atoms: _89  and  _90
REMARK   46  A    between atoms: _93  and  _95
REMARK   47  A    between atoms: _95  and  _96
REMARK   48  A    between atoms: _99  and  _101
REMARK   49  A    between atoms: _101  and  _102
REMARK   50  A    between atoms: _101  and  _104
REMARK   51  A    between atoms: _104  and  _105
REMARK   52  A    between atoms: _105  and  _106
REMARK   53  A    between atoms: _106  and  _107
REMARK   54  A    between atoms: _116  and  _118
REMARK   55  A    between atoms: _118  and  _119
REMARK   56  A    between atoms: _118  and  _121
REMARK   57  A    between atoms: _121  and  _122
REMARK   58  A    between atoms: _122  and  _123
REMARK   59  A    between atoms: _123  and  _124
REMARK   60  A    between atoms: _133  and  _135
REMARK   61  A    between atoms: _135  and  _136
REMARK   62  A    between atoms: _138  and  _140
REMARK   63  A    between atoms: _140  and  _141
REMARK   64  A    between atoms: _140  and  _143
REMARK   65  A    between atoms: _143  and  _144
REMARK   66  A    between atoms: _144  and  _145
REMARK   67  A    between atoms: _148  and  _150
REMARK   68  A    between atoms: _150  and  _151
REMARK   69  A    between atoms: _150  and  _153
REMARK   70  A    between atoms: _153  and  _154
REMARK   71  A    between atoms: _160  and  _162
REMARK   72  A    between atoms: _162  and  _163
REMARK   73  A    between atoms: _162  and  _165
REMARK   74  A    between atoms: _165  and  _166
REMARK   75  A    between atoms: _169  and  _171
REMARK   76  A    between atoms: _171  and  _172
REMARK   77  A    between atoms: _171  and  _174
REMARK   78  A    between atoms: _174  and  _175
REMARK   79  A    between atoms: _180  and  _181
REMARK   80  A    between atoms: _183  and  _185
REMARK   81  A    between atoms: _185  and  _186
REMARK   82  A    between atoms: _185  and  _188
REMARK   83  A    between atoms: _188  and  _189
REMARK   84  A    between atoms: _191  and  _193
REMARK   85  A    between atoms: _193  and  _194
REMARK   86  A    between atoms: _193  and  _196
REMARK   87  A    between atoms: _199  and  _201
REMARK   88  A    between atoms: _201  and  _202
REMARK   89  A    between atoms: _201  and  _204
REMARK   90  A    between atoms: _204  and  _205
REMARK   91  A    between atoms: _205  and  _206
REMARK   92  A    between atoms: _211  and  _213
REMARK   93  A    between atoms: _213  and  _214
REMARK   94  A    between atoms: _213  and  _216
REMARK   95  A    between atoms: _216  and  _217
REMARK   96  A    between atoms: _220  and  _222
REMARK   97  A    between atoms: _222  and  _223
REMARK   98  A    between atoms: _222  and  _225
REMARK   99  A    between atoms: _225  and  _226
REMARK  100  A    between atoms: _231  and  _233
REMARK  101  A    between atoms: _233  and  _234
REMARK  102  A    between atoms: _233  and  _236
REMARK  103  A    between atoms: _236  and  _237
REMARK  104  A    between atoms: _237  and  _238
REMARK  105  A    between atoms: _238  and  _239
REMARK  106  A    between atoms: _248  and  _250
REMARK  107  A    between atoms: _250  and  _251
REMARK  108  A    between atoms: _250  and  _253
REMARK  109  A    between atoms: _253  and  _254
REMARK  110  A    between atoms: _257  and  _259
REMARK  111  A    between atoms: _259  and  _260
REMARK  112  A    between atoms: _262  and  _264
REMARK  113  A    between atoms: _264  and  _265
REMARK  114  A    between atoms: _264  and  _267
REMARK  115  A    between atoms: _267  and  _268
REMARK  116  A    between atoms: _271  and  _273
REMARK  117  A    between atoms: _273  and  _274
REMARK  118  A    between atoms: _273  and  _276
REMARK  119  A    between atoms: _279  and  _281
REMARK  120  A    between atoms: _281  and  _282
REMARK  121  A    between atoms: _281  and  _284
REMARK  122  A    between atoms: _284  and  _285
REMARK  123  A    between atoms: _288  and  _290
REMARK  124  A    between atoms: _290  and  _291
REMARK  125  A    between atoms: _290  and  _293
REMARK  126  A    between atoms: _293  and  _294
REMARK  127  A    between atoms: _294  and  _295
REMARK  128  A    between atoms: _295  and  _296
REMARK  129  A    between atoms: _296  and  _297
REMARK  130  A    between atoms: _301  and  _303
REMARK  131  A    between atoms: _303  and  _304
REMARK  132  A    between atoms: _303  and  _306
REMARK  133  A    between atoms: _306  and  _307
REMARK  134  A    between atoms: _307  and  _308
REMARK  135  A    between atoms: _313  and  _315
REMARK  136  A    between atoms: _315  and  _316
REMARK  137  A    between atoms: _315  and  _318
REMARK  138  A    between atoms: _318  and  _319
REMARK  139  A    between atoms: _326  and  _327
REMARK  140  A    between atoms: _332  and  _334
REMARK  141  A    between atoms: _334  and  _335
REMARK  142  A    between atoms: _334  and  _337
REMARK  143  A    between atoms: _337  and  _338
REMARK  144  A    between atoms: _348  and  _350
REMARK  145  A    between atoms: _350  and  _351
REMARK  146  A    between atoms: _354  and  _356
REMARK  147  A    between atoms: _356  and  _357
REMARK  148  A    between atoms: _356  and  _359
REMARK  149  A    between atoms: _359  and  _360
REMARK  150  A    between atoms: _363  and  _365
REMARK  151  A    between atoms: _365  and  _366
REMARK                            x       y       z     vdW  Elec       q    Type
REMARK                         _______ _______ _______ _____ _____    ______ ____
ROOT
ATOM      1  O   HOH     1      29.172  18.072  14.600  0.00  0.00    +0.000 OA
ENDROOT
TORSDOF 0
REMARK  Name = ../refined-set-2016/4cc5/4cc5_pocket.pdb
REMARK  151 active torsions:
REMARK  status: ('A' for Active; 'I' for Inactive)
REMARK    1  A    between atoms: _1  and  _3
REMARK    2  A    between atoms: _3  and  _4
REMARK    3  A    between atoms: _3  and  _6
REMARK    4  A    between atoms: _6  and  _7
REMARK    5  A    between atoms: _7  and  _8
REMARK    6  A    between atoms: _10  and  _12
REMARK    7  A    between atoms: _12  and  _13
REMARK    8  A    between atoms: _12  and  _15
REMARK    9  A    between atoms: _15  and  _16
REMARK   10  A    between atoms: _19  and  _21
REMARK   11  A    between atoms: _21  and  _22
REMARK   12  A    between atoms: _21  and  _24
REMARK   13  A    between atoms: _24  and  _25
REMARK   14  A    between atoms: _27  and  _29
REMARK   15  A    between atoms: _29  and  _30
REMARK   16  A    between atoms: _29  and  _32
REMARK   17  A    between atoms: _32  and  _33
REMARK   18  A    between atoms: _36  and  _38
REMARK   19  A    between atoms: _38  and  _39
REMARK   20  A    between atoms: _38  and  _41
REMARK   21  A    between atoms: _41  and  _42
REMARK   22  A    between atoms: _42  and  _43
REMARK   23  A    between atoms: _45  and  _47
REMARK   24  A    between atoms: _47  and  _48
REMARK   25  A    between atoms: _47  and  _50
REMARK   26  A    between atoms: _52  and  _54
REMARK   27  A    between atoms: _54  and  _55
REMARK   28  A    between atoms: _54  and  _57
REMARK   29  A    between atoms: _57  and  _58
REMARK   30  A    between atoms: _58  and  _59
REMARK   31  A    between atoms: _62  and  _64
REMARK   32  A    between atoms: _64  and  _65
REMARK   33  A    between atoms: _64  and  _67
REMARK   34  A    between atoms: _67  and  _68
REMARK   35  A    between atoms: _71  and  _73
REMARK   36  A    between atoms: _73  and  _74
REMARK   37  A    between atoms: _73  and  _76
REMARK   38  A    between atoms: _76  and  _77
REMARK   39  A    between atoms: _77  and  _78
REMARK   40  A    between atoms: _78  and  _79
REMARK   41  A    between atoms: _79  and  _80
REMARK   42  A    between atoms: _84  and  _86
REMARK   43  A    between atoms: _86  and  _87
REMARK   44  A    between atoms: _86  and  _89
REMARK   45  A    between atoms: _89  and  _90
REMARK   46  A    between atoms: _93  and  _95
REMARK   47  A    between atoms: _95  and  _96
REMARK   48  A    between atoms: _99  and  _101
REMARK   49  A    between atoms: _101  and  _102
REMARK   50  A    between atoms: _101  and  _104
REMARK   51  A    between atoms: _104  and  _105
REMARK   52  A    between atoms: _105  and  _106
REMARK   53  A    between atoms: _106  and  _107
REMARK   54  A    between atoms: _116  and  _118
REMARK   55  A    between atoms: _118  and  _119
REMARK   56  A    between atoms: _118  and  _121
REMARK   57  A    between atoms: _121  and  _122
REMARK   58  A    between atoms: _122  and  _123
REMARK   59  A    between atoms: _123  and  _124
REMARK   60  A    between atoms: _133  and  _135
REMARK   61  A    between atoms: _135  and  _136
REMARK   62  A    between atoms: _138  and  _140
REMARK   63  A    between atoms: _140  and  _141
REMARK   64  A    between atoms: _140  and  _143
REMARK   65  A    between atoms: _143  and  _144
REMARK   66  A    between atoms: _144  and  _145
REMARK   67  A    between atoms: _148  and  _150
REMARK   68  A    between atoms: _150  and  _151
REMARK   69  A    between atoms: _150  and  _153
REMARK   70  A    between atoms: _153  and  _154
REMARK   71  A    between atoms: _160  and  _162
REMARK   72  A    between atoms: _162  and  _163
REMARK   73  A    between atoms: _162  and  _165
REMARK   74  A    between atoms: _165  and  _166
REMARK   75  A    between atoms: _169  and  _171
REMARK   76  A    between atoms: _171  and  _172
REMARK   77  A    between atoms: _171  and  _174
REMARK   78  A    between atoms: _174  and  _175
REMARK   79  A    between atoms: _180  and  _181
REMARK   80  A    between atoms: _183  and  _185
REMARK   81  A    between atoms: _185  and  _186
REMARK   82  A    between atoms: _185  and  _188
REMARK   83  A    between atoms: _188  and  _189
REMARK   84  A    between atoms: _191  and  _193
REMARK   85  A    between atoms: _193  and  _194
REMARK   86  A    between atoms: _193  and  _196
REMARK   87  A    between atoms: _199  and  _201
REMARK   88  A    between atoms: _201  and  _202
REMARK   89  A    between atoms: _201  and  _204
REMARK   90  A    between atoms: _204  and  _205
REMARK   91  A    between atoms: _205  and  _206
REMARK   92  A    between atoms: _211  and  _213
REMARK   93  A    between atoms: _213  and  _214
REMARK   94  A    between atoms: _213  and  _216
REMARK   95  A    between atoms: _216  and  _217
REMARK   96  A    between atoms: _220  and  _222
REMARK   97  A    between atoms: _222  and  _223
REMARK   98  A    between atoms: _222  and  _225
REMARK   99  A    between atoms: _225  and  _226
REMARK  100  A    between atoms: _231  and  _233
REMARK  101  A    between atoms: _233  and  _234
REMARK  102  A    between atoms: _233  and  _236
REMARK  103  A    between atoms: _236  and  _237
REMARK  104  A    between atoms: _237  and  _238
REMARK  105  A    between atoms: _238  and  _239
REMARK  106  A    between atoms: _248  and  _250
REMARK  107  A    between atoms: _250  and  _251
REMARK  108  A    between atoms: _250  and  _253
REMARK  109  A    between atoms: _253  and  _254
REMARK  110  A    between atoms: _257  and  _259
REMARK  111  A    between atoms: _259  and  _260
REMARK  112  A    between atoms: _262  and  _264
REMARK  113  A    between atoms: _264  and  _265
REMARK  114  A    between atoms: _264  and  _267
REMARK  115  A    between atoms: _267  and  _268
REMARK  116  A    between atoms: _271  and  _273
REMARK  117  A    between atoms: _273  and  _274
REMARK  118  A    between atoms: _273  and  _276
REMARK  119  A    between atoms: _279  and  _281
REMARK  120  A    between atoms: _281  and  _282
REMARK  121  A    between atoms: _281  and  _284
REMARK  122  A    between atoms: _284  and  _285
REMARK  123  A    between atoms: _288  and  _290
REMARK  124  A    between atoms: _290  and  _291
REMARK  125  A    between atoms: _290  and  _293
REMARK  126  A    between atoms: _293  and  _294
REMARK  127  A    between atoms: _294  and  _295
REMARK  128  A    between atoms: _295  and  _296
REMARK  129  A    between atoms: _296  and  _297
REMARK  130  A    between atoms: _301  and  _303
REMARK  131  A    between atoms: _303  and  _304
REMARK  132  A    between atoms: _303  and  _306
REMARK  133  A    between atoms: _306  and  _307
REMARK  134  A    between atoms: _307  and  _308
REMARK  135  A    between atoms: _313  and  _315
REMARK  136  A    between atoms: _315  and  _316
REMARK  137  A    between atoms: _315  and  _318
REMARK  138  A    between atoms: _318  and  _319
REMARK  139  A    between atoms: _326  and  _327
REMARK  140  A    between atoms: _332  and  _334
REMARK  141  A    between atoms: _334  and  _335
REMARK  142  A    between atoms: _334  and  _337
REMARK  143  A    between atoms: _337  and  _338
REMARK  144  A    between atoms: _348  and  _350
REMARK  145  A    between atoms: _350  and  _351
REMARK  146  A    between atoms: _354  and  _356
REMARK  147  A    between atoms: _356  and  _357
REMARK  148  A    between atoms: _356  and  _359
REMARK  149  A    between atoms: _359  and  _360
REMARK  150  A    between atoms: _363  and  _365
REMARK  151  A    between atoms: _365  and  _366
REMARK                            x       y       z     vdW  Elec       q    Type
REMARK                         _______ _______ _______ _____ _____    ______ ____
ROOT
ATOM      1  O   HOH     1      28.155  12.005  12.815  0.00  0.00    +0.000 OA
ENDROOT
TORSDOF 0
REMARK  Name = ../refined-set-2016/4cc5/4cc5_pocket.pdb
REMARK  151 active torsions:
REMARK  status: ('A' for Active; 'I' for Inactive)
REMARK    1  A    between atoms: _1  and  _3
REMARK    2  A    between atoms: _3  and  _4
REMARK    3  A    between atoms: _3  and  _6
REMARK    4  A    between atoms: _6  and  _7
REMARK    5  A    between atoms: _7  and  _8
REMARK    6  A    between atoms: _10  and  _12
REMARK    7  A    between atoms: _12  and  _13
REMARK    8  A    between atoms: _12  and  _15
REMARK    9  A    between atoms: _15  and  _16
REMARK   10  A    between atoms: _19  and  _21
REMARK   11  A    between atoms: _21  and  _22
REMARK   12  A    between atoms: _21  and  _24
REMARK   13  A    between atoms: _24  and  _25
REMARK   14  A    between atoms: _27  and  _29
REMARK   15  A    between atoms: _29  and  _30
REMARK   16  A    between atoms: _29  and  _32
REMARK   17  A    between atoms: _32  and  _33
REMARK   18  A    between atoms: _36  and  _38
REMARK   19  A    between atoms: _38  and  _39
REMARK   20  A    between atoms: _38  and  _41
REMARK   21  A    between atoms: _41  and  _42
REMARK   22  A    between atoms: _42  and  _43
REMARK   23  A    between atoms: _45  and  _47
REMARK   24  A    between atoms: _47  and  _48
REMARK   25  A    between atoms: _47  and  _50
REMARK   26  A    between atoms: _52  and  _54
REMARK   27  A    between atoms: _54  and  _55
REMARK   28  A    between atoms: _54  and  _57
REMARK   29  A    between atoms: _57  and  _58
REMARK   30  A    between atoms: _58  and  _59
REMARK   31  A    between atoms: _62  and  _64
REMARK   32  A    between atoms: _64  and  _65
REMARK   33  A    between atoms: _64  and  _67
REMARK   34  A    between atoms: _67  and  _68
REMARK   35  A    between atoms: _71  and  _73
REMARK   36  A    between atoms: _73  and  _74
REMARK   37  A    between atoms: _73  and  _76
REMARK   38  A    between atoms: _76  and  _77
REMARK   39  A    between atoms: _77  and  _78
REMARK   40  A    between atoms: _78  and  _79
REMARK   41  A    between atoms: _79  and  _80
REMARK   42  A    between atoms: _84  and  _86
REMARK   43  A    between atoms: _86  and  _87
REMARK   44  A    between atoms: _86  and  _89
REMARK   45  A    between atoms: _89  and  _90
REMARK   46  A    between atoms: _93  and  _95
REMARK   47  A    between atoms: _95  and  _96
REMARK   48  A    between atoms: _99  and  _101
REMARK   49  A    between atoms: _101  and  _102
REMARK   50  A    between atoms: _101  and  _104
REMARK   51  A    between atoms: _104  and  _105
REMARK   52  A    between atoms: _105  and  _106
REMARK   53  A    between atoms: _106  and  _107
REMARK   54  A    between atoms: _116  and  _118
REMARK   55  A    between atoms: _118  and  _119
REMARK   56  A    between atoms: _118  and  _121
REMARK   57  A    between atoms: _121  and  _122
REMARK   58  A    between atoms: _122  and  _123
REMARK   59  A    between atoms: _123  and  _124
REMARK   60  A    between atoms: _133  and  _135
REMARK   61  A    between atoms: _135  and  _136
REMARK   62  A    between atoms: _138  and  _140
REMARK   63  A    between atoms: _140  and  _141
REMARK   64  A    between atoms: _140  and  _143
REMARK   65  A    between atoms: _143  and  _144
REMARK   66  A    between atoms: _144  and  _145
REMARK   67  A    between atoms: _148  and  _150
REMARK   68  A    between atoms: _150  and  _151
REMARK   69  A    between atoms: _150  and  _153
REMARK   70  A    between atoms: _153  and  _154
REMARK   71  A    between atoms: _160  and  _162
REMARK   72  A    between atoms: _162  and  _163
REMARK   73  A    between atoms: _162  and  _165
REMARK   74  A    between atoms: _165  and  _166
REMARK   75  A    between atoms: _169  and  _171
REMARK   76  A    between atoms: _171  and  _172
REMARK   77  A    between atoms: _171  and  _174
REMARK   78  A    between atoms: _174  and  _175
REMARK   79  A    between atoms: _180  and  _181
REMARK   80  A    between atoms: _183  and  _185
REMARK   81  A    between atoms: _185  and  _186
REMARK   82  A    between atoms: _185  and  _188
REMARK   83  A    between atoms: _188  and  _189
REMARK   84  A    between atoms: _191  and  _193
REMARK   85  A    between atoms: _193  and  _194
REMARK   86  A    between atoms: _193  and  _196
REMARK   87  A    between atoms: _199  and  _201
REMARK   88  A    between atoms: _201  and  _202
REMARK   89  A    between atoms: _201  and  _204
REMARK   90  A    between atoms: _204  and  _205
REMARK   91  A    between atoms: _205  and  _206
REMARK   92  A    between atoms: _211  and  _213
REMARK   93  A    between atoms: _213  and  _214
REMARK   94  A    between atoms: _213  and  _216
REMARK   95  A    between atoms: _216  and  _217
REMARK   96  A    between atoms: _220  and  _222
REMARK   97  A    between atoms: _222  and  _223
REMARK   98  A    between atoms: _222  and  _225
REMARK   99  A    between atoms: _225  and  _226
REMARK  100  A    between atoms: _231  and  _233
REMARK  101  A    between atoms: _233  and  _234
REMARK  102  A    between atoms: _233  and  _236
REMARK  103  A    between atoms: _236  and  _237
REMARK  104  A    between atoms: _237  and  _238
REMARK  105  A    between atoms: _238  and  _239
REMARK  106  A    between atoms: _248  and  _250
REMARK  107  A    between atoms: _250  and  _251
REMARK  108  A    between atoms: _250  and  _253
REMARK  109  A    between atoms: _253  and  _254
REMARK  110  A    between atoms: _257  and  _259
REMARK  111  A    between atoms: _259  and  _260
REMARK  112  A    between atoms: _262  and  _264
REMARK  113  A    between atoms: _264  and  _265
REMARK  114  A    between atoms: _264  and  _267
REMARK  115  A    between atoms: _267  and  _268
REMARK  116  A    between atoms: _271  and  _273
REMARK  117  A    between atoms: _273  and  _274
REMARK  118  A    between atoms: _273  and  _276
REMARK  119  A    between atoms: _279  and  _281
REMARK  120  A    between atoms: _281  and  _282
REMARK  121  A    between atoms: _281  and  _284
REMARK  122  A    between atoms: _284  and  _285
REMARK  123  A    between atoms: _288  and  _290
REMARK  124  A    between atoms: _290  and  _291
REMARK  125  A    between atoms: _290  and  _293
REMARK  126  A    between atoms: _293  and  _294
REMARK  127  A    between atoms: _294  and  _295
REMARK  128  A    between atoms: _295  and  _296
REMARK  129  A    between atoms: _296  and  _297
REMARK  130  A    between atoms: _301  and  _303
REMARK  131  A    between atoms: _303  and  _304
REMARK  132  A    between atoms: _303  and  _306
REMARK  133  A    between atoms: _306  and  _307
REMARK  134  A    between atoms: _307  and  _308
REMARK  135  A    between atoms: _313  and  _315
REMARK  136  A    between atoms: _315  and  _316
REMARK  137  A    between atoms: _315  and  _318
REMARK  138  A    between atoms: _318  and  _319
REMARK  139  A    between atoms: _326  and  _327
REMARK  140  A    between atoms: _332  and  _334
REMARK  141  A    between atoms: _334  and  _335
REMARK  142  A    between atoms: _334  and  _337
REMARK  143  A    between atoms: _337  and  _338
REMARK  144  A    between atoms: _348  and  _350
REMARK  145  A    between atoms: _350  and  _351
REMARK  146  A    between atoms: _354  and  _356
REMARK  147  A    between atoms: _356  and  _357
REMARK  148  A    between atoms: _356  and  _359
REMARK  149  A    between atoms: _359  and  _360
REMARK  150  A    between atoms: _363  and  _365
REMARK  151  A    between atoms: _365  and  _366
REMARK                            x       y       z     vdW  Elec       q    Type
REMARK                         _______ _______ _______ _____ _____    ______ ____
ROOT
ATOM      1  O   HOH     1      26.449  14.518   9.125  0.00  0.00    +0.000 OA
ENDROOT
TORSDOF 0
REMARK  Name = ../refined-set-2016/4cc5/4cc5_pocket.pdb
REMARK  151 active torsions:
REMARK  status: ('A' for Active; 'I' for Inactive)
REMARK    1  A    between atoms: _1  and  _3
REMARK    2  A    between atoms: _3  and  _4
REMARK    3  A    between atoms: _3  and  _6
REMARK    4  A    between atoms: _6  and  _7
REMARK    5  A    between atoms: _7  and  _8
REMARK    6  A    between atoms: _10  and  _12
REMARK    7  A    between atoms: _12  and  _13
REMARK    8  A    between atoms: _12  and  _15
REMARK    9  A    between atoms: _15  and  _16
REMARK   10  A    between atoms: _19  and  _21
REMARK   11  A    between atoms: _21  and  _22
REMARK   12  A    between atoms: _21  and  _24
REMARK   13  A    between atoms: _24  and  _25
REMARK   14  A    between atoms: _27  and  _29
REMARK   15  A    between atoms: _29  and  _30
REMARK   16  A    between atoms: _29  and  _32
REMARK   17  A    between atoms: _32  and  _33
REMARK   18  A    between atoms: _36  and  _38
REMARK   19  A    between atoms: _38  and  _39
REMARK   20  A    between atoms: _38  and  _41
REMARK   21  A    between atoms: _41  and  _42
REMARK   22  A    between atoms: _42  and  _43
REMARK   23  A    between atoms: _45  and  _47
REMARK   24  A    between atoms: _47  and  _48
REMARK   25  A    between atoms: _47  and  _50
REMARK   26  A    between atoms: _52  and  _54
REMARK   27  A    between atoms: _54  and  _55
REMARK   28  A    between atoms: _54  and  _57
REMARK   29  A    between atoms: _57  and  _58
REMARK   30  A    between atoms: _58  and  _59
REMARK   31  A    between atoms: _62  and  _64
REMARK   32  A    between atoms: _64  and  _65
REMARK   33  A    between atoms: _64  and  _67
REMARK   34  A    between atoms: _67  and  _68
REMARK   35  A    between atoms: _71  and  _73
REMARK   36  A    between atoms: _73  and  _74
REMARK   37  A    between atoms: _73  and  _76
REMARK   38  A    between atoms: _76  and  _77
REMARK   39  A    between atoms: _77  and  _78
REMARK   40  A    between atoms: _78  and  _79
REMARK   41  A    between atoms: _79  and  _80
REMARK   42  A    between atoms: _84  and  _86
REMARK   43  A    between atoms: _86  and  _87
REMARK   44  A    between atoms: _86  and  _89
REMARK   45  A    between atoms: _89  and  _90
REMARK   46  A    between atoms: _93  and  _95
REMARK   47  A    between atoms: _95  and  _96
REMARK   48  A    between atoms: _99  and  _101
REMARK   49  A    between atoms: _101  and  _102
REMARK   50  A    between atoms: _101  and  _104
REMARK   51  A    between atoms: _104  and  _105
REMARK   52  A    between atoms: _105  and  _106
REMARK   53  A    between atoms: _106  and  _107
REMARK   54  A    between atoms: _116  and  _118
REMARK   55  A    between atoms: _118  and  _119
REMARK   56  A    between atoms: _118  and  _121
REMARK   57  A    between atoms: _121  and  _122
REMARK   58  A    between atoms: _122  and  _123
REMARK   59  A    between atoms: _123  and  _124
REMARK   60  A    between atoms: _133  and  _135
REMARK   61  A    between atoms: _135  and  _136
REMARK   62  A    between atoms: _138  and  _140
REMARK   63  A    between atoms: _140  and  _141
REMARK   64  A    between atoms: _140  and  _143
REMARK   65  A    between atoms: _143  and  _144
REMARK   66  A    between atoms: _144  and  _145
REMARK   67  A    between atoms: _148  and  _150
REMARK   68  A    between atoms: _150  and  _151
REMARK   69  A    between atoms: _150  and  _153
REMARK   70  A    between atoms: _153  and  _154
REMARK   71  A    between atoms: _160  and  _162
REMARK   72  A    between atoms: _162  and  _163
REMARK   73  A    between atoms: _162  and  _165
REMARK   74  A    between atoms: _165  and  _166
REMARK   75  A    between atoms: _169  and  _171
REMARK   76  A    between atoms: _171  and  _172
REMARK   77  A    between atoms: _171  and  _174
REMARK   78  A    between atoms: _174  and  _175
REMARK   79  A    between atoms: _180  and  _181
REMARK   80  A    between atoms: _183  and  _185
REMARK   81  A    between atoms: _185  and  _186
REMARK   82  A    between atoms: _185  and  _188
REMARK   83  A    between atoms: _188  and  _189
REMARK   84  A    between atoms: _191  and  _193
REMARK   85  A    between atoms: _193  and  _194
REMARK   86  A    between atoms: _193  and  _196
REMARK   87  A    between atoms: _199  and  _201
REMARK   88  A    between atoms: _201  and  _202
REMARK   89  A    between atoms: _201  and  _204
REMARK   90  A    between atoms: _204  and  _205
REMARK   91  A    between atoms: _205  and  _206
REMARK   92  A    between atoms: _211  and  _213
REMARK   93  A    between atoms: _213  and  _214
REMARK   94  A    between atoms: _213  and  _216
REMARK   95  A    between atoms: _216  and  _217
REMARK   96  A    between atoms: _220  and  _222
REMARK   97  A    between atoms: _222  and  _223
REMARK   98  A    between atoms: _222  and  _225
REMARK   99  A    between atoms: _225  and  _226
REMARK  100  A    between atoms: _231  and  _233
REMARK  101  A    between atoms: _233  and  _234
REMARK  102  A    between atoms: _233  and  _236
REMARK  103  A    between atoms: _236  and  _237
REMARK  104  A    between atoms: _237  and  _238
REMARK  105  A    between atoms: _238  and  _239
REMARK  106  A    between atoms: _248  and  _250
REMARK  107  A    between atoms: _250  and  _251
REMARK  108  A    between atoms: _250  and  _253
REMARK  109  A    between atoms: _253  and  _254
REMARK  110  A    between atoms: _257  and  _259
REMARK  111  A    between atoms: _259  and  _260
REMARK  112  A    between atoms: _262  and  _264
REMARK  113  A    between atoms: _264  and  _265
REMARK  114  A    between atoms: _264  and  _267
REMARK  115  A    between atoms: _267  and  _268
REMARK  116  A    between atoms: _271  and  _273
REMARK  117  A    between atoms: _273  and  _274
REMARK  118  A    between atoms: _273  and  _276
REMARK  119  A    between atoms: _279  and  _281
REMARK  120  A    between atoms: _281  and  _282
REMARK  121  A    between atoms: _281  and  _284
REMARK  122  A    between atoms: _284  and  _285
REMARK  123  A    between atoms: _288  and  _290
REMARK  124  A    between atoms: _290  and  _291
REMARK  125  A    between atoms: _290  and  _293
REMARK  126  A    between atoms: _293  and  _294
REMARK  127  A    between atoms: _294  and  _295
REMARK  128  A    between atoms: _295  and  _296
REMARK  129  A    between atoms: _296  and  _297
REMARK  130  A    between atoms: _301  and  _303
REMARK  131  A    between atoms: _303  and  _304
REMARK  132  A    between atoms: _303  and  _306
REMARK  133  A    between atoms: _306  and  _307
REMARK  134  A    between atoms: _307  and  _308
REMARK  135  A    between atoms: _313  and  _315
REMARK  136  A    between atoms: _315  and  _316
REMARK  137  A    between atoms: _315  and  _318
REMARK  138  A    between atoms: _318  and  _319
REMARK  139  A    between atoms: _326  and  _327
REMARK  140  A    between atoms: _332  and  _334
REMARK  141  A    between atoms: _334  and  _335
REMARK  142  A    between atoms: _334  and  _337
REMARK  143  A    between atoms: _337  and  _338
REMARK  144  A    between atoms: _348  and  _350
REMARK  145  A    between atoms: _350  and  _351
REMARK  146  A    between atoms: _354  and  _356
REMARK  147  A    between atoms: _356  and  _357
REMARK  148  A    between atoms: _356  and  _359
REMARK  149  A    between atoms: _359  and  _360
REMARK  150  A    between atoms: _363  and  _365
REMARK  151  A    between atoms: _365  and  _366
REMARK                            x       y       z     vdW  Elec       q    Type
REMARK                         _______ _______ _______ _____ _____    ______ ____
ROOT
ATOM      1  O   HOH     1      26.985  18.794  16.600  0.00  0.00    +0.000 OA
ENDROOT
TORSDOF 0
REMARK  Name = ../refined-set-2016/4cc5/4cc5_pocket.pdb
REMARK  151 active torsions:
REMARK  status: ('A' for Active; 'I' for Inactive)
REMARK    1  A    between atoms: _1  and  _3
REMARK    2  A    between atoms: _3  and  _4
REMARK    3  A    between atoms: _3  and  _6
REMARK    4  A    between atoms: _6  and  _7
REMARK    5  A    between atoms: _7  and  _8
REMARK    6  A    between atoms: _10  and  _12
REMARK    7  A    between atoms: _12  and  _13
REMARK    8  A    between atoms: _12  and  _15
REMARK    9  A    between atoms: _15  and  _16
REMARK   10  A    between atoms: _19  and  _21
REMARK   11  A    between atoms: _21  and  _22
REMARK   12  A    between atoms: _21  and  _24
REMARK   13  A    between atoms: _24  and  _25
REMARK   14  A    between atoms: _27  and  _29
REMARK   15  A    between atoms: _29  and  _30
REMARK   16  A    between atoms: _29  and  _32
REMARK   17  A    between atoms: _32  and  _33
REMARK   18  A    between atoms: _36  and  _38
REMARK   19  A    between atoms: _38  and  _39
REMARK   20  A    between atoms: _38  and  _41
REMARK   21  A    between atoms: _41  and  _42
REMARK   22  A    between atoms: _42  and  _43
REMARK   23  A    between atoms: _45  and  _47
REMARK   24  A    between atoms: _47  and  _48
REMARK   25  A    between atoms: _47  and  _50
REMARK   26  A    between atoms: _52  and  _54
REMARK   27  A    between atoms: _54  and  _55
REMARK   28  A    between atoms: _54  and  _57
REMARK   29  A    between atoms: _57  and  _58
REMARK   30  A    between atoms: _58  and  _59
REMARK   31  A    between atoms: _62  and  _64
REMARK   32  A    between atoms: _64  and  _65
REMARK   33  A    between atoms: _64  and  _67
REMARK   34  A    between atoms: _67  and  _68
REMARK   35  A    between atoms: _71  and  _73
REMARK   36  A    between atoms: _73  and  _74
REMARK   37  A    between atoms: _73  and  _76
REMARK   38  A    between atoms: _76  and  _77
REMARK   39  A    between atoms: _77  and  _78
REMARK   40  A    between atoms: _78  and  _79
REMARK   41  A    between atoms: _79  and  _80
REMARK   42  A    between atoms: _84  and  _86
REMARK   43  A    between atoms: _86  and  _87
REMARK   44  A    between atoms: _86  and  _89
REMARK   45  A    between atoms: _89  and  _90
REMARK   46  A    between atoms: _93  and  _95
REMARK   47  A    between atoms: _95  and  _96
REMARK   48  A    between atoms: _99  and  _101
REMARK   49  A    between atoms: _101  and  _102
REMARK   50  A    between atoms: _101  and  _104
REMARK   51  A    between atoms: _104  and  _105
REMARK   52  A    between atoms: _105  and  _106
REMARK   53  A    between atoms: _106  and  _107
REMARK   54  A    between atoms: _116  and  _118
REMARK   55  A    between atoms: _118  and  _119
REMARK   56  A    between atoms: _118  and  _121
REMARK   57  A    between atoms: _121  and  _122
REMARK   58  A    between atoms: _122  and  _123
REMARK   59  A    between atoms: _123  and  _124
REMARK   60  A    between atoms: _133  and  _135
REMARK   61  A    between atoms: _135  and  _136
REMARK   62  A    between atoms: _138  and  _140
REMARK   63  A    between atoms: _140  and  _141
REMARK   64  A    between atoms: _140  and  _143
REMARK   65  A    between atoms: _143  and  _144
REMARK   66  A    between atoms: _144  and  _145
REMARK   67  A    between atoms: _148  and  _150
REMARK   68  A    between atoms: _150  and  _151
REMARK   69  A    between atoms: _150  and  _153
REMARK   70  A    between atoms: _153  and  _154
REMARK   71  A    between atoms: _160  and  _162
REMARK   72  A    between atoms: _162  and  _163
REMARK   73  A    between atoms: _162  and  _165
REMARK   74  A    between atoms: _165  and  _166
REMARK   75  A    between atoms: _169  and  _171
REMARK   76  A    between atoms: _171  and  _172
REMARK   77  A    between atoms: _171  and  _174
REMARK   78  A    between atoms: _174  and  _175
REMARK   79  A    between atoms: _180  and  _181
REMARK   80  A    between atoms: _183  and  _185
REMARK   81  A    between atoms: _185  and  _186
REMARK   82  A    between atoms: _185  and  _188
REMARK   83  A    between atoms: _188  and  _189
REMARK   84  A    between atoms: _191  and  _193
REMARK   85  A    between atoms: _193  and  _194
REMARK   86  A    between atoms: _193  and  _196
REMARK   87  A    between atoms: _199  and  _201
REMARK   88  A    between atoms: _201  and  _202
REMARK   89  A    between atoms: _201  and  _204
REMARK   90  A    between atoms: _204  and  _205
REMARK   91  A    between atoms: _205  and  _206
REMARK   92  A    between atoms: _211  and  _213
REMARK   93  A    between atoms: _213  and  _214
REMARK   94  A    between atoms: _213  and  _216
REMARK   95  A    between atoms: _216  and  _217
REMARK   96  A    between atoms: _220  and  _222
REMARK   97  A    between atoms: _222  and  _223
REMARK   98  A    between atoms: _222  and  _225
REMARK   99  A    between atoms: _225  and  _226
REMARK  100  A    between atoms: _231  and  _233
REMARK  101  A    between atoms: _233  and  _234
REMARK  102  A    between atoms: _233  and  _236
REMARK  103  A    between atoms: _236  and  _237
REMARK  104  A    between atoms: _237  and  _238
REMARK  105  A    between atoms: _238  and  _239
REMARK  106  A    between atoms: _248  and  _250
REMARK  107  A    between atoms: _250  and  _251
REMARK  108  A    between atoms: _250  and  _253
REMARK  109  A    between atoms: _253  and  _254
REMARK  110  A    between atoms: _257  and  _259
REMARK  111  A    between atoms: _259  and  _260
REMARK  112  A    between atoms: _262  and  _264
REMARK  113  A    between atoms: _264  and  _265
REMARK  114  A    between atoms: _264  and  _267
REMARK  115  A    between atoms: _267  and  _268
REMARK  116  A    between atoms: _271  and  _273
REMARK  117  A    between atoms: _273  and  _274
REMARK  118  A    between atoms: _273  and  _276
REMARK  119  A    between atoms: _279  and  _281
REMARK  120  A    between atoms: _281  and  _282
REMARK  121  A    between atoms: _281  and  _284
REMARK  122  A    between atoms: _284  and  _285
REMARK  123  A    between atoms: _288  and  _290
REMARK  124  A    between atoms: _290  and  _291
REMARK  125  A    between atoms: _290  and  _293
REMARK  126  A    between atoms: _293  and  _294
REMARK  127  A    between atoms: _294  and  _295
REMARK  128  A    between atoms: _295  and  _296
REMARK  129  A    between atoms: _296  and  _297
REMARK  130  A    between atoms: _301  and  _303
REMARK  131  A    between atoms: _303  and  _304
REMARK  132  A    between atoms: _303  and  _306
REMARK  133  A    between atoms: _306  and  _307
REMARK  134  A    between atoms: _307  and  _308
REMARK  135  A    between atoms: _313  and  _315
REMARK  136  A    between atoms: _315  and  _316
REMARK  137  A    between atoms: _315  and  _318
REMARK  138  A    between atoms: _318  and  _319
REMARK  139  A    between atoms: _326  and  _327
REMARK  140  A    between atoms: _332  and  _334
REMARK  141  A    between atoms: _334  and  _335
REMARK  142  A    between atoms: _334  and  _337
REMARK  143  A    between atoms: _337  and  _338
REMARK  144  A    between atoms: _348  and  _350
REMARK  145  A    between atoms: _350  and  _351
REMARK  146  A    between atoms: _354  and  _356
REMARK  147  A    between atoms: _356  and  _357
REMARK  148  A    between atoms: _356  and  _359
REMARK  149  A    between atoms: _359  and  _360
REMARK  150  A    between atoms: _363  and  _365
REMARK  151  A    between atoms: _365  and  _366
REMARK                            x       y       z     vdW  Elec       q    Type
REMARK                         _______ _______ _______ _____ _____    ______ ____
ROOT
ATOM      1  O   HOH     1      26.001  15.954  11.438  0.00  0.00    +0.000 OA
ENDROOT
TORSDOF 0
REMARK  Name = ../refined-set-2016/4cc5/4cc5_pocket.pdb
REMARK  151 active torsions:
REMARK  status: ('A' for Active; 'I' for Inactive)
REMARK    1  A    between atoms: _1  and  _3
REMARK    2  A    between atoms: _3  and  _4
REMARK    3  A    between atoms: _3  and  _6
REMARK    4  A    between atoms: _6  and  _7
REMARK    5  A    between atoms: _7  and  _8
REMARK    6  A    between atoms: _10  and  _12
REMARK    7  A    between atoms: _12  and  _13
REMARK    8  A    between atoms: _12  and  _15
REMARK    9  A    between atoms: _15  and  _16
REMARK   10  A    between atoms: _19  and  _21
REMARK   11  A    between atoms: _21  and  _22
REMARK   12  A    between atoms: _21  and  _24
REMARK   13  A    between atoms: _24  and  _25
REMARK   14  A    between atoms: _27  and  _29
REMARK   15  A    between atoms: _29  and  _30
REMARK   16  A    between atoms: _29  and  _32
REMARK   17  A    between atoms: _32  and  _33
REMARK   18  A    between atoms: _36  and  _38
REMARK   19  A    between atoms: _38  and  _39
REMARK   20  A    between atoms: _38  and  _41
REMARK   21  A    between atoms: _41  and  _42
REMARK   22  A    between atoms: _42  and  _43
REMARK   23  A    between atoms: _45  and  _47
REMARK   24  A    between atoms: _47  and  _48
REMARK   25  A    between atoms: _47  and  _50
REMARK   26  A    between atoms: _52  and  _54
REMARK   27  A    between atoms: _54  and  _55
REMARK   28  A    between atoms: _54  and  _57
REMARK   29  A    between atoms: _57  and  _58
REMARK   30  A    between atoms: _58  and  _59
REMARK   31  A    between atoms: _62  and  _64
REMARK   32  A    between atoms: _64  and  _65
REMARK   33  A    between atoms: _64  and  _67
REMARK   34  A    between atoms: _67  and  _68
REMARK   35  A    between atoms: _71  and  _73
REMARK   36  A    between atoms: _73  and  _74
REMARK   37  A    between atoms: _73  and  _76
REMARK   38  A    between atoms: _76  and  _77
REMARK   39  A    between atoms: _77  and  _78
REMARK   40  A    between atoms: _78  and  _79
REMARK   41  A    between atoms: _79  and  _80
REMARK   42  A    between atoms: _84  and  _86
REMARK   43  A    between atoms: _86  and  _87
REMARK   44  A    between atoms: _86  and  _89
REMARK   45  A    between atoms: _89  and  _90
REMARK   46  A    between atoms: _93  and  _95
REMARK   47  A    between atoms: _95  and  _96
REMARK   48  A    between atoms: _99  and  _101
REMARK   49  A    between atoms: _101  and  _102
REMARK   50  A    between atoms: _101  and  _104
REMARK   51  A    between atoms: _104  and  _105
REMARK   52  A    between atoms: _105  and  _106
REMARK   53  A    between atoms: _106  and  _107
REMARK   54  A    between atoms: _116  and  _118
REMARK   55  A    between atoms: _118  and  _119
REMARK   56  A    between atoms: _118  and  _121
REMARK   57  A    between atoms: _121  and  _122
REMARK   58  A    between atoms: _122  and  _123
REMARK   59  A    between atoms: _123  and  _124
REMARK   60  A    between atoms: _133  and  _135
REMARK   61  A    between atoms: _135  and  _136
REMARK   62  A    between atoms: _138  and  _140
REMARK   63  A    between atoms: _140  and  _141
REMARK   64  A    between atoms: _140  and  _143
REMARK   65  A    between atoms: _143  and  _144
REMARK   66  A    between atoms: _144  and  _145
REMARK   67  A    between atoms: _148  and  _150
REMARK   68  A    between atoms: _150  and  _151
REMARK   69  A    between atoms: _150  and  _153
REMARK   70  A    between atoms: _153  and  _154
REMARK   71  A    between atoms: _160  and  _162
REMARK   72  A    between atoms: _162  and  _163
REMARK   73  A    between atoms: _162  and  _165
REMARK   74  A    between atoms: _165  and  _166
REMARK   75  A    between atoms: _169  and  _171
REMARK   76  A    between atoms: _171  and  _172
REMARK   77  A    between atoms: _171  and  _174
REMARK   78  A    between atoms: _174  and  _175
REMARK   79  A    between atoms: _180  and  _181
REMARK   80  A    between atoms: _183  and  _185
REMARK   81  A    between atoms: _185  and  _186
REMARK   82  A    between atoms: _185  and  _188
REMARK   83  A    between atoms: _188  and  _189
REMARK   84  A    between atoms: _191  and  _193
REMARK   85  A    between atoms: _193  and  _194
REMARK   86  A    between atoms: _193  and  _196
REMARK   87  A    between atoms: _199  and  _201
REMARK   88  A    between atoms: _201  and  _202
REMARK   89  A    between atoms: _201  and  _204
REMARK   90  A    between atoms: _204  and  _205
REMARK   91  A    between atoms: _205  and  _206
REMARK   92  A    between atoms: _211  and  _213
REMARK   93  A    between atoms: _213  and  _214
REMARK   94  A    between atoms: _213  and  _216
REMARK   95  A    between atoms: _216  and  _217
REMARK   96  A    between atoms: _220  and  _222
REMARK   97  A    between atoms: _222  and  _223
REMARK   98  A    between atoms: _222  and  _225
REMARK   99  A    between atoms: _225  and  _226
REMARK  100  A    between atoms: _231  and  _233
REMARK  101  A    between atoms: _233  and  _234
REMARK  102  A    between atoms: _233  and  _236
REMARK  103  A    between atoms: _236  and  _237
REMARK  104  A    between atoms: _237  and  _238
REMARK  105  A    between atoms: _238  and  _239
REMARK  106  A    between atoms: _248  and  _250
REMARK  107  A    between atoms: _250  and  _251
REMARK  108  A    between atoms: _250  and  _253
REMARK  109  A    between atoms: _253  and  _254
REMARK  110  A    between atoms: _257  and  _259
REMARK  111  A    between atoms: _259  and  _260
REMARK  112  A    between atoms: _262  and  _264
REMARK  113  A    between atoms: _264  and  _265
REMARK  114  A    between atoms: _264  and  _267
REMARK  115  A    between atoms: _267  and  _268
REMARK  116  A    between atoms: _271  and  _273
REMARK  117  A    between atoms: _273  and  _274
REMARK  118  A    between atoms: _273  and  _276
REMARK  119  A    between atoms: _279  and  _281
REMARK  120  A    between atoms: _281  and  _282
REMARK  121  A    between atoms: _281  and  _284
REMARK  122  A    between atoms: _284  and  _285
REMARK  123  A    between atoms: _288  and  _290
REMARK  124  A    between atoms: _290  and  _291
REMARK  125  A    between atoms: _290  and  _293
REMARK  126  A    between atoms: _293  and  _294
REMARK  127  A    between atoms: _294  and  _295
REMARK  128  A    between atoms: _295  and  _296
REMARK  129  A    between atoms: _296  and  _297
REMARK  130  A    between atoms: _301  and  _303
REMARK  131  A    between atoms: _303  and  _304
REMARK  132  A    between atoms: _303  and  _306
REMARK  133  A    between atoms: _306  and  _307
REMARK  134  A    between atoms: _307  and  _308
REMARK  135  A    between atoms: _313  and  _315
REMARK  136  A    between atoms: _315  and  _316
REMARK  137  A    between atoms: _315  and  _318
REMARK  138  A    between atoms: _318  and  _319
REMARK  139  A    between atoms: _326  and  _327
REMARK  140  A    between atoms: _332  and  _334
REMARK  141  A    between atoms: _334  and  _335
REMARK  142  A    between atoms: _334  and  _337
REMARK  143  A    between atoms: _337  and  _338
REMARK  144  A    between atoms: _348  and  _350
REMARK  145  A    between atoms: _350  and  _351
REMARK  146  A    between atoms: _354  and  _356
REMARK  147  A    between atoms: _356  and  _357
REMARK  148  A    between atoms: _356  and  _359
REMARK  149  A    between atoms: _359  and  _360
REMARK  150  A    between atoms: _363  and  _365
REMARK  151  A    between atoms: _365  and  _366
REMARK                            x       y       z     vdW  Elec       q    Type
REMARK                         _______ _______ _______ _____ _____    ______ ____
ROOT
ATOM      1  O   HOH     1      28.812  16.462  12.530  0.00  0.00    +0.000 OA
ENDROOT
TORSDOF 0
REMARK  Name = ../refined-set-2016/4cc5/4cc5_pocket.pdb
REMARK  151 active torsions:
REMARK  status: ('A' for Active; 'I' for Inactive)
REMARK    1  A    between atoms: _1  and  _3
REMARK    2  A    between atoms: _3  and  _4
REMARK    3  A    between atoms: _3  and  _6
REMARK    4  A    between atoms: _6  and  _7
REMARK    5  A    between atoms: _7  and  _8
REMARK    6  A    between atoms: _10  and  _12
REMARK    7  A    between atoms: _12  and  _13
REMARK    8  A    between atoms: _12  and  _15
REMARK    9  A    between atoms: _15  and  _16
REMARK   10  A    between atoms: _19  and  _21
REMARK   11  A    between atoms: _21  and  _22
REMARK   12  A    between atoms: _21  and  _24
REMARK   13  A    between atoms: _24  and  _25
REMARK   14  A    between atoms: _27  and  _29
REMARK   15  A    between atoms: _29  and  _30
REMARK   16  A    between atoms: _29  and  _32
REMARK   17  A    between atoms: _32  and  _33
REMARK   18  A    between atoms: _36  and  _38
REMARK   19  A    between atoms: _38  and  _39
REMARK   20  A    between atoms: _38  and  _41
REMARK   21  A    between atoms: _41  and  _42
REMARK   22  A    between atoms: _42  and  _43
REMARK   23  A    between atoms: _45  and  _47
REMARK   24  A    between atoms: _47  and  _48
REMARK   25  A    between atoms: _47  and  _50
REMARK   26  A    between atoms: _52  and  _54
REMARK   27  A    between atoms: _54  and  _55
REMARK   28  A    between atoms: _54  and  _57
REMARK   29  A    between atoms: _57  and  _58
REMARK   30  A    between atoms: _58  and  _59
REMARK   31  A    between atoms: _62  and  _64
REMARK   32  A    between atoms: _64  and  _65
REMARK   33  A    between atoms: _64  and  _67
REMARK   34  A    between atoms: _67  and  _68
REMARK   35  A    between atoms: _71  and  _73
REMARK   36  A    between atoms: _73  and  _74
REMARK   37  A    between atoms: _73  and  _76
REMARK   38  A    between atoms: _76  and  _77
REMARK   39  A    between atoms: _77  and  _78
REMARK   40  A    between atoms: _78  and  _79
REMARK   41  A    between atoms: _79  and  _80
REMARK   42  A    between atoms: _84  and  _86
REMARK   43  A    between atoms: _86  and  _87
REMARK   44  A    between atoms: _86  and  _89
REMARK   45  A    between atoms: _89  and  _90
REMARK   46  A    between atoms: _93  and  _95
REMARK   47  A    between atoms: _95  and  _96
REMARK   48  A    between atoms: _99  and  _101
REMARK   49  A    between atoms: _101  and  _102
REMARK   50  A    between atoms: _101  and  _104
REMARK   51  A    between atoms: _104  and  _105
REMARK   52  A    between atoms: _105  and  _106
REMARK   53  A    between atoms: _106  and  _107
REMARK   54  A    between atoms: _116  and  _118
REMARK   55  A    between atoms: _118  and  _119
REMARK   56  A    between atoms: _118  and  _121
REMARK   57  A    between atoms: _121  and  _122
REMARK   58  A    between atoms: _122  and  _123
REMARK   59  A    between atoms: _123  and  _124
REMARK   60  A    between atoms: _133  and  _135
REMARK   61  A    between atoms: _135  and  _136
REMARK   62  A    between atoms: _138  and  _140
REMARK   63  A    between atoms: _140  and  _141
REMARK   64  A    between atoms: _140  and  _143
REMARK   65  A    between atoms: _143  and  _144
REMARK   66  A    between atoms: _144  and  _145
REMARK   67  A    between atoms: _148  and  _150
REMARK   68  A    between atoms: _150  and  _151
REMARK   69  A    between atoms: _150  and  _153
REMARK   70  A    between atoms: _153  and  _154
REMARK   71  A    between atoms: _160  and  _162
REMARK   72  A    between atoms: _162  and  _163
REMARK   73  A    between atoms: _162  and  _165
REMARK   74  A    between atoms: _165  and  _166
REMARK   75  A    between atoms: _169  and  _171
REMARK   76  A    between atoms: _171  and  _172
REMARK   77  A    between atoms: _171  and  _174
REMARK   78  A    between atoms: _174  and  _175
REMARK   79  A    between atoms: _180  and  _181
REMARK   80  A    between atoms: _183  and  _185
REMARK   81  A    between atoms: _185  and  _186
REMARK   82  A    between atoms: _185  and  _188
REMARK   83  A    between atoms: _188  and  _189
REMARK   84  A    between atoms: _191  and  _193
REMARK   85  A    between atoms: _193  and  _194
REMARK   86  A    between atoms: _193  and  _196
REMARK   87  A    between atoms: _199  and  _201
REMARK   88  A    between atoms: _201  and  _202
REMARK   89  A    between atoms: _201  and  _204
REMARK   90  A    between atoms: _204  and  _205
REMARK   91  A    between atoms: _205  and  _206
REMARK   92  A    between atoms: _211  and  _213
REMARK   93  A    between atoms: _213  and  _214
REMARK   94  A    between atoms: _213  and  _216
REMARK   95  A    between atoms: _216  and  _217
REMARK   96  A    between atoms: _220  and  _222
REMARK   97  A    between atoms: _222  and  _223
REMARK   98  A    between atoms: _222  and  _225
REMARK   99  A    between atoms: _225  and  _226
REMARK  100  A    between atoms: _231  and  _233
REMARK  101  A    between atoms: _233  and  _234
REMARK  102  A    between atoms: _233  and  _236
REMARK  103  A    between atoms: _236  and  _237
REMARK  104  A    between atoms: _237  and  _238
REMARK  105  A    between atoms: _238  and  _239
REMARK  106  A    between atoms: _248  and  _250
REMARK  107  A    between atoms: _250  and  _251
REMARK  108  A    between atoms: _250  and  _253
REMARK  109  A    between atoms: _253  and  _254
REMARK  110  A    between atoms: _257  and  _259
REMARK  111  A    between atoms: _259  and  _260
REMARK  112  A    between atoms: _262  and  _264
REMARK  113  A    between atoms: _264  and  _265
REMARK  114  A    between atoms: _264  and  _267
REMARK  115  A    between atoms: _267  and  _268
REMARK  116  A    between atoms: _271  and  _273
REMARK  117  A    between atoms: _273  and  _274
REMARK  118  A    between atoms: _273  and  _276
REMARK  119  A    between atoms: _279  and  _281
REMARK  120  A    between atoms: _281  and  _282
REMARK  121  A    between atoms: _281  and  _284
REMARK  122  A    between atoms: _284  and  _285
REMARK  123  A    between atoms: _288  and  _290
REMARK  124  A    between atoms: _290  and  _291
REMARK  125  A    between atoms: _290  and  _293
REMARK  126  A    between atoms: _293  and  _294
REMARK  127  A    between atoms: _294  and  _295
REMARK  128  A    between atoms: _295  and  _296
REMARK  129  A    between atoms: _296  and  _297
REMARK  130  A    between atoms: _301  and  _303
REMARK  131  A    between atoms: _303  and  _304
REMARK  132  A    between atoms: _303  and  _306
REMARK  133  A    between atoms: _306  and  _307
REMARK  134  A    between atoms: _307  and  _308
REMARK  135  A    between atoms: _313  and  _315
REMARK  136  A    between atoms: _315  and  _316
REMARK  137  A    between atoms: _315  and  _318
REMARK  138  A    between atoms: _318  and  _319
REMARK  139  A    between atoms: _326  and  _327
REMARK  140  A    between atoms: _332  and  _334
REMARK  141  A    between atoms: _334  and  _335
REMARK  142  A    between atoms: _334  and  _337
REMARK  143  A    between atoms: _337  and  _338
REMARK  144  A    between atoms: _348  and  _350
REMARK  145  A    between atoms: _350  and  _351
REMARK  146  A    between atoms: _354  and  _356
REMARK  147  A    between atoms: _356  and  _357
REMARK  148  A    between atoms: _356  and  _359
REMARK  149  A    between atoms: _359  and  _360
REMARK  150  A    between atoms: _363  and  _365
REMARK  151  A    between atoms: _365  and  _366
REMARK                            x       y       z     vdW  Elec       q    Type
REMARK                         _______ _______ _______ _____ _____    ______ ____
ROOT
ATOM      1  O   HOH     1      26.675  23.618  18.139  0.00  0.00    +0.000 OA
ENDROOT
TORSDOF 0
REMARK  Name = ../refined-set-2016/4cc5/4cc5_pocket.pdb
REMARK  151 active torsions:
REMARK  status: ('A' for Active; 'I' for Inactive)
REMARK    1  A    between atoms: _1  and  _3
REMARK    2  A    between atoms: _3  and  _4
REMARK    3  A    between atoms: _3  and  _6
REMARK    4  A    between atoms: _6  and  _7
REMARK    5  A    between atoms: _7  and  _8
REMARK    6  A    between atoms: _10  and  _12
REMARK    7  A    between atoms: _12  and  _13
REMARK    8  A    between atoms: _12  and  _15
REMARK    9  A    between atoms: _15  and  _16
REMARK   10  A    between atoms: _19  and  _21
REMARK   11  A    between atoms: _21  and  _22
REMARK   12  A    between atoms: _21  and  _24
REMARK   13  A    between atoms: _24  and  _25
REMARK   14  A    between atoms: _27  and  _29
REMARK   15  A    between atoms: _29  and  _30
REMARK   16  A    between atoms: _29  and  _32
REMARK   17  A    between atoms: _32  and  _33
REMARK   18  A    between atoms: _36  and  _38
REMARK   19  A    between atoms: _38  and  _39
REMARK   20  A    between atoms: _38  and  _41
REMARK   21  A    between atoms: _41  and  _42
REMARK   22  A    between atoms: _42  and  _43
REMARK   23  A    between atoms: _45  and  _47
REMARK   24  A    between atoms: _47  and  _48
REMARK   25  A    between atoms: _47  and  _50
REMARK   26  A    between atoms: _52  and  _54
REMARK   27  A    between atoms: _54  and  _55
REMARK   28  A    between atoms: _54  and  _57
REMARK   29  A    between atoms: _57  and  _58
REMARK   30  A    between atoms: _58  and  _59
REMARK   31  A    between atoms: _62  and  _64
REMARK   32  A    between atoms: _64  and  _65
REMARK   33  A    between atoms: _64  and  _67
REMARK   34  A    between atoms: _67  and  _68
REMARK   35  A    between atoms: _71  and  _73
REMARK   36  A    between atoms: _73  and  _74
REMARK   37  A    between atoms: _73  and  _76
REMARK   38  A    between atoms: _76  and  _77
REMARK   39  A    between atoms: _77  and  _78
REMARK   40  A    between atoms: _78  and  _79
REMARK   41  A    between atoms: _79  and  _80
REMARK   42  A    between atoms: _84  and  _86
REMARK   43  A    between atoms: _86  and  _87
REMARK   44  A    between atoms: _86  and  _89
REMARK   45  A    between atoms: _89  and  _90
REMARK   46  A    between atoms: _93  and  _95
REMARK   47  A    between atoms: _95  and  _96
REMARK   48  A    between atoms: _99  and  _101
REMARK   49  A    between atoms: _101  and  _102
REMARK   50  A    between atoms: _101  and  _104
REMARK   51  A    between atoms: _104  and  _105
REMARK   52  A    between atoms: _105  and  _106
REMARK   53  A    between atoms: _106  and  _107
REMARK   54  A    between atoms: _116  and  _118
REMARK   55  A    between atoms: _118  and  _119
REMARK   56  A    between atoms: _118  and  _121
REMARK   57  A    between atoms: _121  and  _122
REMARK   58  A    between atoms: _122  and  _123
REMARK   59  A    between atoms: _123  and  _124
REMARK   60  A    between atoms: _133  and  _135
REMARK   61  A    between atoms: _135  and  _136
REMARK   62  A    between atoms: _138  and  _140
REMARK   63  A    between atoms: _140  and  _141
REMARK   64  A    between atoms: _140  and  _143
REMARK   65  A    between atoms: _143  and  _144
REMARK   66  A    between atoms: _144  and  _145
REMARK   67  A    between atoms: _148  and  _150
REMARK   68  A    between atoms: _150  and  _151
REMARK   69  A    between atoms: _150  and  _153
REMARK   70  A    between atoms: _153  and  _154
REMARK   71  A    between atoms: _160  and  _162
REMARK   72  A    between atoms: _162  and  _163
REMARK   73  A    between atoms: _162  and  _165
REMARK   74  A    between atoms: _165  and  _166
REMARK   75  A    between atoms: _169  and  _171
REMARK   76  A    between atoms: _171  and  _172
REMARK   77  A    between atoms: _171  and  _174
REMARK   78  A    between atoms: _174  and  _175
REMARK   79  A    between atoms: _180  and  _181
REMARK   80  A    between atoms: _183  and  _185
REMARK   81  A    between atoms: _185  and  _186
REMARK   82  A    between atoms: _185  and  _188
REMARK   83  A    between atoms: _188  and  _189
REMARK   84  A    between atoms: _191  and  _193
REMARK   85  A    between atoms: _193  and  _194
REMARK   86  A    between atoms: _193  and  _196
REMARK   87  A    between atoms: _199  and  _201
REMARK   88  A    between atoms: _201  and  _202
REMARK   89  A    between atoms: _201  and  _204
REMARK   90  A    between atoms: _204  and  _205
REMARK   91  A    between atoms: _205  and  _206
REMARK   92  A    between atoms: _211  and  _213
REMARK   93  A    between atoms: _213  and  _214
REMARK   94  A    between atoms: _213  and  _216
REMARK   95  A    between atoms: _216  and  _217
REMARK   96  A    between atoms: _220  and  _222
REMARK   97  A    between atoms: _222  and  _223
REMARK   98  A    between atoms: _222  and  _225
REMARK   99  A    between atoms: _225  and  _226
REMARK  100  A    between atoms: _231  and  _233
REMARK  101  A    between atoms: _233  and  _234
REMARK  102  A    between atoms: _233  and  _236
REMARK  103  A    between atoms: _236  and  _237
REMARK  104  A    between atoms: _237  and  _238
REMARK  105  A    between atoms: _238  and  _239
REMARK  106  A    between atoms: _248  and  _250
REMARK  107  A    between atoms: _250  and  _251
REMARK  108  A    between atoms: _250  and  _253
REMARK  109  A    between atoms: _253  and  _254
REMARK  110  A    between atoms: _257  and  _259
REMARK  111  A    between atoms: _259  and  _260
REMARK  112  A    between atoms: _262  and  _264
REMARK  113  A    between atoms: _264  and  _265
REMARK  114  A    between atoms: _264  and  _267
REMARK  115  A    between atoms: _267  and  _268
REMARK  116  A    between atoms: _271  and  _273
REMARK  117  A    between atoms: _273  and  _274
REMARK  118  A    between atoms: _273  and  _276
REMARK  119  A    between atoms: _279  and  _281
REMARK  120  A    between atoms: _281  and  _282
REMARK  121  A    between atoms: _281  and  _284
REMARK  122  A    between atoms: _284  and  _285
REMARK  123  A    between atoms: _288  and  _290
REMARK  124  A    between atoms: _290  and  _291
REMARK  125  A    between atoms: _290  and  _293
REMARK  126  A    between atoms: _293  and  _294
REMARK  127  A    between atoms: _294  and  _295
REMARK  128  A    between atoms: _295  and  _296
REMARK  129  A    between atoms: _296  and  _297
REMARK  130  A    between atoms: _301  and  _303
REMARK  131  A    between atoms: _303  and  _304
REMARK  132  A    between atoms: _303  and  _306
REMARK  133  A    between atoms: _306  and  _307
REMARK  134  A    between atoms: _307  and  _308
REMARK  135  A    between atoms: _313  and  _315
REMARK  136  A    between atoms: _315  and  _316
REMARK  137  A    between atoms: _315  and  _318
REMARK  138  A    between atoms: _318  and  _319
REMARK  139  A    between atoms: _326  and  _327
REMARK  140  A    between atoms: _332  and  _334
REMARK  141  A    between atoms: _334  and  _335
REMARK  142  A    between atoms: _334  and  _337
REMARK  143  A    between atoms: _337  and  _338
REMARK  144  A    between atoms: _348  and  _350
REMARK  145  A    between atoms: _350  and  _351
REMARK  146  A    between atoms: _354  and  _356
REMARK  147  A    between atoms: _356  and  _357
REMARK  148  A    between atoms: _356  and  _359
REMARK  149  A    between atoms: _359  and  _360
REMARK  150  A    between atoms: _363  and  _365
REMARK  151  A    between atoms: _365  and  _366
REMARK                            x       y       z     vdW  Elec       q    Type
REMARK                         _______ _______ _______ _____ _____    ______ ____
ROOT
ATOM      1  O   HOH     1      23.370  17.942   8.508  0.00  0.00    +0.000 OA
ENDROOT
TORSDOF 0
REMARK  Name = ../refined-set-2016/4cc5/4cc5_pocket.pdb
REMARK  151 active torsions:
REMARK  status: ('A' for Active; 'I' for Inactive)
REMARK    1  A    between atoms: _1  and  _3
REMARK    2  A    between atoms: _3  and  _4
REMARK    3  A    between atoms: _3  and  _6
REMARK    4  A    between atoms: _6  and  _7
REMARK    5  A    between atoms: _7  and  _8
REMARK    6  A    between atoms: _10  and  _12
REMARK    7  A    between atoms: _12  and  _13
REMARK    8  A    between atoms: _12  and  _15
REMARK    9  A    between atoms: _15  and  _16
REMARK   10  A    between atoms: _19  and  _21
REMARK   11  A    between atoms: _21  and  _22
REMARK   12  A    between atoms: _21  and  _24
REMARK   13  A    between atoms: _24  and  _25
REMARK   14  A    between atoms: _27  and  _29
REMARK   15  A    between atoms: _29  and  _30
REMARK   16  A    between atoms: _29  and  _32
REMARK   17  A    between atoms: _32  and  _33
REMARK   18  A    between atoms: _36  and  _38
REMARK   19  A    between atoms: _38  and  _39
REMARK   20  A    between atoms: _38  and  _41
REMARK   21  A    between atoms: _41  and  _42
REMARK   22  A    between atoms: _42  and  _43
REMARK   23  A    between atoms: _45  and  _47
REMARK   24  A    between atoms: _47  and  _48
REMARK   25  A    between atoms: _47  and  _50
REMARK   26  A    between atoms: _52  and  _54
REMARK   27  A    between atoms: _54  and  _55
REMARK   28  A    between atoms: _54  and  _57
REMARK   29  A    between atoms: _57  and  _58
REMARK   30  A    between atoms: _58  and  _59
REMARK   31  A    between atoms: _62  and  _64
REMARK   32  A    between atoms: _64  and  _65
REMARK   33  A    between atoms: _64  and  _67
REMARK   34  A    between atoms: _67  and  _68
REMARK   35  A    between atoms: _71  and  _73
REMARK   36  A    between atoms: _73  and  _74
REMARK   37  A    between atoms: _73  and  _76
REMARK   38  A    between atoms: _76  and  _77
REMARK   39  A    between atoms: _77  and  _78
REMARK   40  A    between atoms: _78  and  _79
REMARK   41  A    between atoms: _79  and  _80
REMARK   42  A    between atoms: _84  and  _86
REMARK   43  A    between atoms: _86  and  _87
REMARK   44  A    between atoms: _86  and  _89
REMARK   45  A    between atoms: _89  and  _90
REMARK   46  A    between atoms: _93  and  _95
REMARK   47  A    between atoms: _95  and  _96
REMARK   48  A    between atoms: _99  and  _101
REMARK   49  A    between atoms: _101  and  _102
REMARK   50  A    between atoms: _101  and  _104
REMARK   51  A    between atoms: _104  and  _105
REMARK   52  A    between atoms: _105  and  _106
REMARK   53  A    between atoms: _106  and  _107
REMARK   54  A    between atoms: _116  and  _118
REMARK   55  A    between atoms: _118  and  _119
REMARK   56  A    between atoms: _118  and  _121
REMARK   57  A    between atoms: _121  and  _122
REMARK   58  A    between atoms: _122  and  _123
REMARK   59  A    between atoms: _123  and  _124
REMARK   60  A    between atoms: _133  and  _135
REMARK   61  A    between atoms: _135  and  _136
REMARK   62  A    between atoms: _138  and  _140
REMARK   63  A    between atoms: _140  and  _141
REMARK   64  A    between atoms: _140  and  _143
REMARK   65  A    between atoms: _143  and  _144
REMARK   66  A    between atoms: _144  and  _145
REMARK   67  A    between atoms: _148  and  _150
REMARK   68  A    between atoms: _150  and  _151
REMARK   69  A    between atoms: _150  and  _153
REMARK   70  A    between atoms: _153  and  _154
REMARK   71  A    between atoms: _160  and  _162
REMARK   72  A    between atoms: _162  and  _163
REMARK   73  A    between atoms: _162  and  _165
REMARK   74  A    between atoms: _165  and  _166
REMARK   75  A    between atoms: _169  and  _171
REMARK   76  A    between atoms: _171  and  _172
REMARK   77  A    between atoms: _171  and  _174
REMARK   78  A    between atoms: _174  and  _175
REMARK   79  A    between atoms: _180  and  _181
REMARK   80  A    between atoms: _183  and  _185
REMARK   81  A    between atoms: _185  and  _186
REMARK   82  A    between atoms: _185  and  _188
REMARK   83  A    between atoms: _188  and  _189
REMARK   84  A    between atoms: _191  and  _193
REMARK   85  A    between atoms: _193  and  _194
REMARK   86  A    between atoms: _193  and  _196
REMARK   87  A    between atoms: _199  and  _201
REMARK   88  A    between atoms: _201  and  _202
REMARK   89  A    between atoms: _201  and  _204
REMARK   90  A    between atoms: _204  and  _205
REMARK   91  A    between atoms: _205  and  _206
REMARK   92  A    between atoms: _211  and  _213
REMARK   93  A    between atoms: _213  and  _214
REMARK   94  A    between atoms: _213  and  _216
REMARK   95  A    between atoms: _216  and  _217
REMARK   96  A    between atoms: _220  and  _222
REMARK   97  A    between atoms: _222  and  _223
REMARK   98  A    between atoms: _222  and  _225
REMARK   99  A    between atoms: _225  and  _226
REMARK  100  A    between atoms: _231  and  _233
REMARK  101  A    between atoms: _233  and  _234
REMARK  102  A    between atoms: _233  and  _236
REMARK  103  A    between atoms: _236  and  _237
REMARK  104  A    between atoms: _237  and  _238
REMARK  105  A    between atoms: _238  and  _239
REMARK  106  A    between atoms: _248  and  _250
REMARK  107  A    between atoms: _250  and  _251
REMARK  108  A    between atoms: _250  and  _253
REMARK  109  A    between atoms: _253  and  _254
REMARK  110  A    between atoms: _257  and  _259
REMARK  111  A    between atoms: _259  and  _260
REMARK  112  A    between atoms: _262  and  _264
REMARK  113  A    between atoms: _264  and  _265
REMARK  114  A    between atoms: _264  and  _267
REMARK  115  A    between atoms: _267  and  _268
REMARK  116  A    between atoms: _271  and  _273
REMARK  117  A    between atoms: _273  and  _274
REMARK  118  A    between atoms: _273  and  _276
REMARK  119  A    between atoms: _279  and  _281
REMARK  120  A    between atoms: _281  and  _282
REMARK  121  A    between atoms: _281  and  _284
REMARK  122  A    between atoms: _284  and  _285
REMARK  123  A    between atoms: _288  and  _290
REMARK  124  A    between atoms: _290  and  _291
REMARK  125  A    between atoms: _290  and  _293
REMARK  126  A    between atoms: _293  and  _294
REMARK  127  A    between atoms: _294  and  _295
REMARK  128  A    between atoms: _295  and  _296
REMARK  129  A    between atoms: _296  and  _297
REMARK  130  A    between atoms: _301  and  _303
REMARK  131  A    between atoms: _303  and  _304
REMARK  132  A    between atoms: _303  and  _306
REMARK  133  A    between atoms: _306  and  _307
REMARK  134  A    between atoms: _307  and  _308
REMARK  135  A    between atoms: _313  and  _315
REMARK  136  A    between atoms: _315  and  _316
REMARK  137  A    between atoms: _315  and  _318
REMARK  138  A    between atoms: _318  and  _319
REMARK  139  A    between atoms: _326  and  _327
REMARK  140  A    between atoms: _332  and  _334
REMARK  141  A    between atoms: _334  and  _335
REMARK  142  A    between atoms: _334  and  _337
REMARK  143  A    between atoms: _337  and  _338
REMARK  144  A    between atoms: _348  and  _350
REMARK  145  A    between atoms: _350  and  _351
REMARK  146  A    between atoms: _354  and  _356
REMARK  147  A    between atoms: _356  and  _357
REMARK  148  A    between atoms: _356  and  _359
REMARK  149  A    between atoms: _359  and  _360
REMARK  150  A    between atoms: _363  and  _365
REMARK  151  A    between atoms: _365  and  _366
REMARK                            x       y       z     vdW  Elec       q    Type
REMARK                         _______ _______ _______ _____ _____    ______ ____
ROOT
ATOM      1  O   HOH     1      24.603  24.478   7.862  0.00  0.00    +0.000 OA
ENDROOT
TORSDOF 0
REMARK  Name = ../refined-set-2016/4cc5/4cc5_pocket.pdb
REMARK  151 active torsions:
REMARK  status: ('A' for Active; 'I' for Inactive)
REMARK    1  A    between atoms: _1  and  _3
REMARK    2  A    between atoms: _3  and  _4
REMARK    3  A    between atoms: _3  and  _6
REMARK    4  A    between atoms: _6  and  _7
REMARK    5  A    between atoms: _7  and  _8
REMARK    6  A    between atoms: _10  and  _12
REMARK    7  A    between atoms: _12  and  _13
REMARK    8  A    between atoms: _12  and  _15
REMARK    9  A    between atoms: _15  and  _16
REMARK   10  A    between atoms: _19  and  _21
REMARK   11  A    between atoms: _21  and  _22
REMARK   12  A    between atoms: _21  and  _24
REMARK   13  A    between atoms: _24  and  _25
REMARK   14  A    between atoms: _27  and  _29
REMARK   15  A    between atoms: _29  and  _30
REMARK   16  A    between atoms: _29  and  _32
REMARK   17  A    between atoms: _32  and  _33
REMARK   18  A    between atoms: _36  and  _38
REMARK   19  A    between atoms: _38  and  _39
REMARK   20  A    between atoms: _38  and  _41
REMARK   21  A    between atoms: _41  and  _42
REMARK   22  A    between atoms: _42  and  _43
REMARK   23  A    between atoms: _45  and  _47
REMARK   24  A    between atoms: _47  and  _48
REMARK   25  A    between atoms: _47  and  _50
REMARK   26  A    between atoms: _52  and  _54
REMARK   27  A    between atoms: _54  and  _55
REMARK   28  A    between atoms: _54  and  _57
REMARK   29  A    between atoms: _57  and  _58
REMARK   30  A    between atoms: _58  and  _59
REMARK   31  A    between atoms: _62  and  _64
REMARK   32  A    between atoms: _64  and  _65
REMARK   33  A    between atoms: _64  and  _67
REMARK   34  A    between atoms: _67  and  _68
REMARK   35  A    between atoms: _71  and  _73
REMARK   36  A    between atoms: _73  and  _74
REMARK   37  A    between atoms: _73  and  _76
REMARK   38  A    between atoms: _76  and  _77
REMARK   39  A    between atoms: _77  and  _78
REMARK   40  A    between atoms: _78  and  _79
REMARK   41  A    between atoms: _79  and  _80
REMARK   42  A    between atoms: _84  and  _86
REMARK   43  A    between atoms: _86  and  _87
REMARK   44  A    between atoms: _86  and  _89
REMARK   45  A    between atoms: _89  and  _90
REMARK   46  A    between atoms: _93  and  _95
REMARK   47  A    between atoms: _95  and  _96
REMARK   48  A    between atoms: _99  and  _101
REMARK   49  A    between atoms: _101  and  _102
REMARK   50  A    between atoms: _101  and  _104
REMARK   51  A    between atoms: _104  and  _105
REMARK   52  A    between atoms: _105  and  _106
REMARK   53  A    between atoms: _106  and  _107
REMARK   54  A    between atoms: _116  and  _118
REMARK   55  A    between atoms: _118  and  _119
REMARK   56  A    between atoms: _118  and  _121
REMARK   57  A    between atoms: _121  and  _122
REMARK   58  A    between atoms: _122  and  _123
REMARK   59  A    between atoms: _123  and  _124
REMARK   60  A    between atoms: _133  and  _135
REMARK   61  A    between atoms: _135  and  _136
REMARK   62  A    between atoms: _138  and  _140
REMARK   63  A    between atoms: _140  and  _141
REMARK   64  A    between atoms: _140  and  _143
REMARK   65  A    between atoms: _143  and  _144
REMARK   66  A    between atoms: _144  and  _145
REMARK   67  A    between atoms: _148  and  _150
REMARK   68  A    between atoms: _150  and  _151
REMARK   69  A    between atoms: _150  and  _153
REMARK   70  A    between atoms: _153  and  _154
REMARK   71  A    between atoms: _160  and  _162
REMARK   72  A    between atoms: _162  and  _163
REMARK   73  A    between atoms: _162  and  _165
REMARK   74  A    between atoms: _165  and  _166
REMARK   75  A    between atoms: _169  and  _171
REMARK   76  A    between atoms: _171  and  _172
REMARK   77  A    between atoms: _171  and  _174
REMARK   78  A    between atoms: _174  and  _175
REMARK   79  A    between atoms: _180  and  _181
REMARK   80  A    between atoms: _183  and  _185
REMARK   81  A    between atoms: _185  and  _186
REMARK   82  A    between atoms: _185  and  _188
REMARK   83  A    between atoms: _188  and  _189
REMARK   84  A    between atoms: _191  and  _193
REMARK   85  A    between atoms: _193  and  _194
REMARK   86  A    between atoms: _193  and  _196
REMARK   87  A    between atoms: _199  and  _201
REMARK   88  A    between atoms: _201  and  _202
REMARK   89  A    between atoms: _201  and  _204
REMARK   90  A    between atoms: _204  and  _205
REMARK   91  A    between atoms: _205  and  _206
REMARK   92  A    between atoms: _211  and  _213
REMARK   93  A    between atoms: _213  and  _214
REMARK   94  A    between atoms: _213  and  _216
REMARK   95  A    between atoms: _216  and  _217
REMARK   96  A    between atoms: _220  and  _222
REMARK   97  A    between atoms: _222  and  _223
REMARK   98  A    between atoms: _222  and  _225
REMARK   99  A    between atoms: _225  and  _226
REMARK  100  A    between atoms: _231  and  _233
REMARK  101  A    between atoms: _233  and  _234
REMARK  102  A    between atoms: _233  and  _236
REMARK  103  A    between atoms: _236  and  _237
REMARK  104  A    between atoms: _237  and  _238
REMARK  105  A    between atoms: _238  and  _239
REMARK  106  A    between atoms: _248  and  _250
REMARK  107  A    between atoms: _250  and  _251
REMARK  108  A    between atoms: _250  and  _253
REMARK  109  A    between atoms: _253  and  _254
REMARK  110  A    between atoms: _257  and  _259
REMARK  111  A    between atoms: _259  and  _260
REMARK  112  A    between atoms: _262  and  _264
REMARK  113  A    between atoms: _264  and  _265
REMARK  114  A    between atoms: _264  and  _267
REMARK  115  A    between atoms: _267  and  _268
REMARK  116  A    between atoms: _271  and  _273
REMARK  117  A    between atoms: _273  and  _274
REMARK  118  A    between atoms: _273  and  _276
REMARK  119  A    between atoms: _279  and  _281
REMARK  120  A    between atoms: _281  and  _282
REMARK  121  A    between atoms: _281  and  _284
REMARK  122  A    between atoms: _284  and  _285
REMARK  123  A    between atoms: _288  and  _290
REMARK  124  A    between atoms: _290  and  _291
REMARK  125  A    between atoms: _290  and  _293
REMARK  126  A    between atoms: _293  and  _294
REMARK  127  A    between atoms: _294  and  _295
REMARK  128  A    between atoms: _295  and  _296
REMARK  129  A    between atoms: _296  and  _297
REMARK  130  A    between atoms: _301  and  _303
REMARK  131  A    between atoms: _303  and  _304
REMARK  132  A    between atoms: _303  and  _306
REMARK  133  A    between atoms: _306  and  _307
REMARK  134  A    between atoms: _307  and  _308
REMARK  135  A    between atoms: _313  and  _315
REMARK  136  A    between atoms: _315  and  _316
REMARK  137  A    between atoms: _315  and  _318
REMARK  138  A    between atoms: _318  and  _319
REMARK  139  A    between atoms: _326  and  _327
REMARK  140  A    between atoms: _332  and  _334
REMARK  141  A    between atoms: _334  and  _335
REMARK  142  A    between atoms: _334  and  _337
REMARK  143  A    between atoms: _337  and  _338
REMARK  144  A    between atoms: _348  and  _350
REMARK  145  A    between atoms: _350  and  _351
REMARK  146  A    between atoms: _354  and  _356
REMARK  147  A    between atoms: _356  and  _357
REMARK  148  A    between atoms: _356  and  _359
REMARK  149  A    between atoms: _359  and  _360
REMARK  150  A    between atoms: _363  and  _365
REMARK  151  A    between atoms: _365  and  _366
REMARK                            x       y       z     vdW  Elec       q    Type
REMARK                         _______ _______ _______ _____ _____    ______ ____
ROOT
ATOM      1  O   HOH     1      22.574  22.272   7.759  0.00  0.00    +0.000 OA
ENDROOT
TORSDOF 0
REMARK  Name = ../refined-set-2016/4cc5/4cc5_pocket.pdb
REMARK  151 active torsions:
REMARK  status: ('A' for Active; 'I' for Inactive)
REMARK    1  A    between atoms: _1  and  _3
REMARK    2  A    between atoms: _3  and  _4
REMARK    3  A    between atoms: _3  and  _6
REMARK    4  A    between atoms: _6  and  _7
REMARK    5  A    between atoms: _7  and  _8
REMARK    6  A    between atoms: _10  and  _12
REMARK    7  A    between atoms: _12  and  _13
REMARK    8  A    between atoms: _12  and  _15
REMARK    9  A    between atoms: _15  and  _16
REMARK   10  A    between atoms: _19  and  _21
REMARK   11  A    between atoms: _21  and  _22
REMARK   12  A    between atoms: _21  and  _24
REMARK   13  A    between atoms: _24  and  _25
REMARK   14  A    between atoms: _27  and  _29
REMARK   15  A    between atoms: _29  and  _30
REMARK   16  A    between atoms: _29  and  _32
REMARK   17  A    between atoms: _32  and  _33
REMARK   18  A    between atoms: _36  and  _38
REMARK   19  A    between atoms: _38  and  _39
REMARK   20  A    between atoms: _38  and  _41
REMARK   21  A    between atoms: _41  and  _42
REMARK   22  A    between atoms: _42  and  _43
REMARK   23  A    between atoms: _45  and  _47
REMARK   24  A    between atoms: _47  and  _48
REMARK   25  A    between atoms: _47  and  _50
REMARK   26  A    between atoms: _52  and  _54
REMARK   27  A    between atoms: _54  and  _55
REMARK   28  A    between atoms: _54  and  _57
REMARK   29  A    between atoms: _57  and  _58
REMARK   30  A    between atoms: _58  and  _59
REMARK   31  A    between atoms: _62  and  _64
REMARK   32  A    between atoms: _64  and  _65
REMARK   33  A    between atoms: _64  and  _67
REMARK   34  A    between atoms: _67  and  _68
REMARK   35  A    between atoms: _71  and  _73
REMARK   36  A    between atoms: _73  and  _74
REMARK   37  A    between atoms: _73  and  _76
REMARK   38  A    between atoms: _76  and  _77
REMARK   39  A    between atoms: _77  and  _78
REMARK   40  A    between atoms: _78  and  _79
REMARK   41  A    between atoms: _79  and  _80
REMARK   42  A    between atoms: _84  and  _86
REMARK   43  A    between atoms: _86  and  _87
REMARK   44  A    between atoms: _86  and  _89
REMARK   45  A    between atoms: _89  and  _90
REMARK   46  A    between atoms: _93  and  _95
REMARK   47  A    between atoms: _95  and  _96
REMARK   48  A    between atoms: _99  and  _101
REMARK   49  A    between atoms: _101  and  _102
REMARK   50  A    between atoms: _101  and  _104
REMARK   51  A    between atoms: _104  and  _105
REMARK   52  A    between atoms: _105  and  _106
REMARK   53  A    between atoms: _106  and  _107
REMARK   54  A    between atoms: _116  and  _118
REMARK   55  A    between atoms: _118  and  _119
REMARK   56  A    between atoms: _118  and  _121
REMARK   57  A    between atoms: _121  and  _122
REMARK   58  A    between atoms: _122  and  _123
REMARK   59  A    between atoms: _123  and  _124
REMARK   60  A    between atoms: _133  and  _135
REMARK   61  A    between atoms: _135  and  _136
REMARK   62  A    between atoms: _138  and  _140
REMARK   63  A    between atoms: _140  and  _141
REMARK   64  A    between atoms: _140  and  _143
REMARK   65  A    between atoms: _143  and  _144
REMARK   66  A    between atoms: _144  and  _145
REMARK   67  A    between atoms: _148  and  _150
REMARK   68  A    between atoms: _150  and  _151
REMARK   69  A    between atoms: _150  and  _153
REMARK   70  A    between atoms: _153  and  _154
REMARK   71  A    between atoms: _160  and  _162
REMARK   72  A    between atoms: _162  and  _163
REMARK   73  A    between atoms: _162  and  _165
REMARK   74  A    between atoms: _165  and  _166
REMARK   75  A    between atoms: _169  and  _171
REMARK   76  A    between atoms: _171  and  _172
REMARK   77  A    between atoms: _171  and  _174
REMARK   78  A    between atoms: _174  and  _175
REMARK   79  A    between atoms: _180  and  _181
REMARK   80  A    between atoms: _183  and  _185
REMARK   81  A    between atoms: _185  and  _186
REMARK   82  A    between atoms: _185  and  _188
REMARK   83  A    between atoms: _188  and  _189
REMARK   84  A    between atoms: _191  and  _193
REMARK   85  A    between atoms: _193  and  _194
REMARK   86  A    between atoms: _193  and  _196
REMARK   87  A    between atoms: _199  and  _201
REMARK   88  A    between atoms: _201  and  _202
REMARK   89  A    between atoms: _201  and  _204
REMARK   90  A    between atoms: _204  and  _205
REMARK   91  A    between atoms: _205  and  _206
REMARK   92  A    between atoms: _211  and  _213
REMARK   93  A    between atoms: _213  and  _214
REMARK   94  A    between atoms: _213  and  _216
REMARK   95  A    between atoms: _216  and  _217
REMARK   96  A    between atoms: _220  and  _222
REMARK   97  A    between atoms: _222  and  _223
REMARK   98  A    between atoms: _222  and  _225
REMARK   99  A    between atoms: _225  and  _226
REMARK  100  A    between atoms: _231  and  _233
REMARK  101  A    between atoms: _233  and  _234
REMARK  102  A    between atoms: _233  and  _236
REMARK  103  A    between atoms: _236  and  _237
REMARK  104  A    between atoms: _237  and  _238
REMARK  105  A    between atoms: _238  and  _239
REMARK  106  A    between atoms: _248  and  _250
REMARK  107  A    between atoms: _250  and  _251
REMARK  108  A    between atoms: _250  and  _253
REMARK  109  A    between atoms: _253  and  _254
REMARK  110  A    between atoms: _257  and  _259
REMARK  111  A    between atoms: _259  and  _260
REMARK  112  A    between atoms: _262  and  _264
REMARK  113  A    between atoms: _264  and  _265
REMARK  114  A    between atoms: _264  and  _267
REMARK  115  A    between atoms: _267  and  _268
REMARK  116  A    between atoms: _271  and  _273
REMARK  117  A    between atoms: _273  and  _274
REMARK  118  A    between atoms: _273  and  _276
REMARK  119  A    between atoms: _279  and  _281
REMARK  120  A    between atoms: _281  and  _282
REMARK  121  A    between atoms: _281  and  _284
REMARK  122  A    between atoms: _284  and  _285
REMARK  123  A    between atoms: _288  and  _290
REMARK  124  A    between atoms: _290  and  _291
REMARK  125  A    between atoms: _290  and  _293
REMARK  126  A    between atoms: _293  and  _294
REMARK  127  A    between atoms: _294  and  _295
REMARK  128  A    between atoms: _295  and  _296
REMARK  129  A    between atoms: _296  and  _297
REMARK  130  A    between atoms: _301  and  _303
REMARK  131  A    between atoms: _303  and  _304
REMARK  132  A    between atoms: _303  and  _306
REMARK  133  A    between atoms: _306  and  _307
REMARK  134  A    between atoms: _307  and  _308
REMARK  135  A    between atoms: _313  and  _315
REMARK  136  A    between atoms: _315  and  _316
REMARK  137  A    between atoms: _315  and  _318
REMARK  138  A    between atoms: _318  and  _319
REMARK  139  A    between atoms: _326  and  _327
REMARK  140  A    between atoms: _332  and  _334
REMARK  141  A    between atoms: _334  and  _335
REMARK  142  A    between atoms: _334  and  _337
REMARK  143  A    between atoms: _337  and  _338
REMARK  144  A    between atoms: _348  and  _350
REMARK  145  A    between atoms: _350  and  _351
REMARK  146  A    between atoms: _354  and  _356
REMARK  147  A    between atoms: _356  and  _357
REMARK  148  A    between atoms: _356  and  _359
REMARK  149  A    between atoms: _359  and  _360
REMARK  150  A    between atoms: _363  and  _365
REMARK  151  A    between atoms: _365  and  _366
REMARK                            x       y       z     vdW  Elec       q    Type
REMARK                         _______ _______ _______ _____ _____    ______ ____
ROOT
ATOM      1  O   HOH     1      19.042  24.471   6.004  0.00  0.00    +0.000 OA
ENDROOT
TORSDOF 0
REMARK  Name = ../refined-set-2016/4cc5/4cc5_pocket.pdb
REMARK  151 active torsions:
REMARK  status: ('A' for Active; 'I' for Inactive)
REMARK    1  A    between atoms: _1  and  _3
REMARK    2  A    between atoms: _3  and  _4
REMARK    3  A    between atoms: _3  and  _6
REMARK    4  A    between atoms: _6  and  _7
REMARK    5  A    between atoms: _7  and  _8
REMARK    6  A    between atoms: _10  and  _12
REMARK    7  A    between atoms: _12  and  _13
REMARK    8  A    between atoms: _12  and  _15
REMARK    9  A    between atoms: _15  and  _16
REMARK   10  A    between atoms: _19  and  _21
REMARK   11  A    between atoms: _21  and  _22
REMARK   12  A    between atoms: _21  and  _24
REMARK   13  A    between atoms: _24  and  _25
REMARK   14  A    between atoms: _27  and  _29
REMARK   15  A    between atoms: _29  and  _30
REMARK   16  A    between atoms: _29  and  _32
REMARK   17  A    between atoms: _32  and  _33
REMARK   18  A    between atoms: _36  and  _38
REMARK   19  A    between atoms: _38  and  _39
REMARK   20  A    between atoms: _38  and  _41
REMARK   21  A    between atoms: _41  and  _42
REMARK   22  A    between atoms: _42  and  _43
REMARK   23  A    between atoms: _45  and  _47
REMARK   24  A    between atoms: _47  and  _48
REMARK   25  A    between atoms: _47  and  _50
REMARK   26  A    between atoms: _52  and  _54
REMARK   27  A    between atoms: _54  and  _55
REMARK   28  A    between atoms: _54  and  _57
REMARK   29  A    between atoms: _57  and  _58
REMARK   30  A    between atoms: _58  and  _59
REMARK   31  A    between atoms: _62  and  _64
REMARK   32  A    between atoms: _64  and  _65
REMARK   33  A    between atoms: _64  and  _67
REMARK   34  A    between atoms: _67  and  _68
REMARK   35  A    between atoms: _71  and  _73
REMARK   36  A    between atoms: _73  and  _74
REMARK   37  A    between atoms: _73  and  _76
REMARK   38  A    between atoms: _76  and  _77
REMARK   39  A    between atoms: _77  and  _78
REMARK   40  A    between atoms: _78  and  _79
REMARK   41  A    between atoms: _79  and  _80
REMARK   42  A    between atoms: _84  and  _86
REMARK   43  A    between atoms: _86  and  _87
REMARK   44  A    between atoms: _86  and  _89
REMARK   45  A    between atoms: _89  and  _90
REMARK   46  A    between atoms: _93  and  _95
REMARK   47  A    between atoms: _95  and  _96
REMARK   48  A    between atoms: _99  and  _101
REMARK   49  A    between atoms: _101  and  _102
REMARK   50  A    between atoms: _101  and  _104
REMARK   51  A    between atoms: _104  and  _105
REMARK   52  A    between atoms: _105  and  _106
REMARK   53  A    between atoms: _106  and  _107
REMARK   54  A    between atoms: _116  and  _118
REMARK   55  A    between atoms: _118  and  _119
REMARK   56  A    between atoms: _118  and  _121
REMARK   57  A    between atoms: _121  and  _122
REMARK   58  A    between atoms: _122  and  _123
REMARK   59  A    between atoms: _123  and  _124
REMARK   60  A    between atoms: _133  and  _135
REMARK   61  A    between atoms: _135  and  _136
REMARK   62  A    between atoms: _138  and  _140
REMARK   63  A    between atoms: _140  and  _141
REMARK   64  A    between atoms: _140  and  _143
REMARK   65  A    between atoms: _143  and  _144
REMARK   66  A    between atoms: _144  and  _145
REMARK   67  A    between atoms: _148  and  _150
REMARK   68  A    between atoms: _150  and  _151
REMARK   69  A    between atoms: _150  and  _153
REMARK   70  A    between atoms: _153  and  _154
REMARK   71  A    between atoms: _160  and  _162
REMARK   72  A    between atoms: _162  and  _163
REMARK   73  A    between atoms: _162  and  _165
REMARK   74  A    between atoms: _165  and  _166
REMARK   75  A    between atoms: _169  and  _171
REMARK   76  A    between atoms: _171  and  _172
REMARK   77  A    between atoms: _171  and  _174
REMARK   78  A    between atoms: _174  and  _175
REMARK   79  A    between atoms: _180  and  _181
REMARK   80  A    between atoms: _183  and  _185
REMARK   81  A    between atoms: _185  and  _186
REMARK   82  A    between atoms: _185  and  _188
REMARK   83  A    between atoms: _188  and  _189
REMARK   84  A    between atoms: _191  and  _193
REMARK   85  A    between atoms: _193  and  _194
REMARK   86  A    between atoms: _193  and  _196
REMARK   87  A    between atoms: _199  and  _201
REMARK   88  A    between atoms: _201  and  _202
REMARK   89  A    between atoms: _201  and  _204
REMARK   90  A    between atoms: _204  and  _205
REMARK   91  A    between atoms: _205  and  _206
REMARK   92  A    between atoms: _211  and  _213
REMARK   93  A    between atoms: _213  and  _214
REMARK   94  A    between atoms: _213  and  _216
REMARK   95  A    between atoms: _216  and  _217
REMARK   96  A    between atoms: _220  and  _222
REMARK   97  A    between atoms: _222  and  _223
REMARK   98  A    between atoms: _222  and  _225
REMARK   99  A    between atoms: _225  and  _226
REMARK  100  A    between atoms: _231  and  _233
REMARK  101  A    between atoms: _233  and  _234
REMARK  102  A    between atoms: _233  and  _236
REMARK  103  A    between atoms: _236  and  _237
REMARK  104  A    between atoms: _237  and  _238
REMARK  105  A    between atoms: _238  and  _239
REMARK  106  A    between atoms: _248  and  _250
REMARK  107  A    between atoms: _250  and  _251
REMARK  108  A    between atoms: _250  and  _253
REMARK  109  A    between atoms: _253  and  _254
REMARK  110  A    between atoms: _257  and  _259
REMARK  111  A    between atoms: _259  and  _260
REMARK  112  A    between atoms: _262  and  _264
REMARK  113  A    between atoms: _264  and  _265
REMARK  114  A    between atoms: _264  and  _267
REMARK  115  A    between atoms: _267  and  _268
REMARK  116  A    between atoms: _271  and  _273
REMARK  117  A    between atoms: _273  and  _274
REMARK  118  A    between atoms: _273  and  _276
REMARK  119  A    between atoms: _279  and  _281
REMARK  120  A    between atoms: _281  and  _282
REMARK  121  A    between atoms: _281  and  _284
REMARK  122  A    between atoms: _284  and  _285
REMARK  123  A    between atoms: _288  and  _290
REMARK  124  A    between atoms: _290  and  _291
REMARK  125  A    between atoms: _290  and  _293
REMARK  126  A    between atoms: _293  and  _294
REMARK  127  A    between atoms: _294  and  _295
REMARK  128  A    between atoms: _295  and  _296
REMARK  129  A    between atoms: _296  and  _297
REMARK  130  A    between atoms: _301  and  _303
REMARK  131  A    between atoms: _303  and  _304
REMARK  132  A    between atoms: _303  and  _306
REMARK  133  A    between atoms: _306  and  _307
REMARK  134  A    between atoms: _307  and  _308
REMARK  135  A    between atoms: _313  and  _315
REMARK  136  A    between atoms: _315  and  _316
REMARK  137  A    between atoms: _315  and  _318
REMARK  138  A    between atoms: _318  and  _319
REMARK  139  A    between atoms: _326  and  _327
REMARK  140  A    between atoms: _332  and  _334
REMARK  141  A    between atoms: _334  and  _335
REMARK  142  A    between atoms: _334  and  _337
REMARK  143  A    between atoms: _337  and  _338
REMARK  144  A    between atoms: _348  and  _350
REMARK  145  A    between atoms: _350  and  _351
REMARK  146  A    between atoms: _354  and  _356
REMARK  147  A    between atoms: _356  and  _357
REMARK  148  A    between atoms: _356  and  _359
REMARK  149  A    between atoms: _359  and  _360
REMARK  150  A    between atoms: _363  and  _365
REMARK  151  A    between atoms: _365  and  _366
REMARK                            x       y       z     vdW  Elec       q    Type
REMARK                         _______ _______ _______ _____ _____    ______ ____
ROOT
ATOM      1  O   HOH     1      23.723  26.880   6.904  0.00  0.00    +0.000 OA
ENDROOT
TORSDOF 0
