REMARK  Name = ../refined-set-2016/1fzj/1fzj_pocket.pdb
REMARK  345 active torsions:
REMARK  status: ('A' for Active; 'I' for Inactive)
REMARK    1  A    between atoms: _1  and  _3
REMARK    2  A    between atoms: _3  and  _4
REMARK    3  A    between atoms: _3  and  _6
REMARK    4  A    between atoms: _6  and  _7
REMARK    5  A    between atoms: _10  and  _12
REMARK    6  A    between atoms: _12  and  _13
REMARK    7  A    between atoms: _12  and  _15
REMARK    8  A    between atoms: _15  and  _16
REMARK    9  A    between atoms: _16  and  _17
REMARK   10  A    between atoms: _17  and  _18
REMARK   11  A    between atoms: _27  and  _29
REMARK   12  A    between atoms: _29  and  _30
REMARK   13  A    between atoms: _29  and  _32
REMARK   14  A    between atoms: _32  and  _33
REMARK   15  A    between atoms: _38  and  _39
REMARK   16  A    between atoms: _41  and  _43
REMARK   17  A    between atoms: _43  and  _44
REMARK   18  A    between atoms: _43  and  _46
REMARK   19  A    between atoms: _46  and  _47
REMARK   20  A    between atoms: _53  and  _55
REMARK   21  A    between atoms: _55  and  _56
REMARK   22  A    between atoms: _55  and  _58
REMARK   23  A    between atoms: _61  and  _63
REMARK   24  A    between atoms: _63  and  _64
REMARK   25  A    between atoms: _63  and  _66
REMARK   26  A    between atoms: _66  and  _67
REMARK   27  A    between atoms: _70  and  _72
REMARK   28  A    between atoms: _72  and  _73
REMARK   29  A    between atoms: _72  and  _75
REMARK   30  A    between atoms: _75  and  _76
REMARK   31  A    between atoms: _81  and  _82
REMARK   32  A    between atoms: _84  and  _86
REMARK   33  A    between atoms: _86  and  _87
REMARK   34  A    between atoms: _86  and  _89
REMARK   35  A    between atoms: _89  and  _90
REMARK   36  A    between atoms: _90  and  _91
REMARK   37  A    between atoms: _93  and  _95
REMARK   38  A    between atoms: _95  and  _96
REMARK   39  A    between atoms: _95  and  _98
REMARK   40  A    between atoms: _98  and  _99
REMARK   41  A    between atoms: _99  and  _100
REMARK   42  A    between atoms: _103  and  _105
REMARK   43  A    between atoms: _105  and  _106
REMARK   44  A    between atoms: _105  and  _108
REMARK   45  A    between atoms: _111  and  _113
REMARK   46  A    between atoms: _113  and  _114
REMARK   47  A    between atoms: _113  and  _116
REMARK   48  A    between atoms: _119  and  _121
REMARK   49  A    between atoms: _121  and  _122
REMARK   50  A    between atoms: _121  and  _124
REMARK   51  A    between atoms: _124  and  _125
REMARK   52  A    between atoms: _131  and  _133
REMARK   53  A    between atoms: _133  and  _134
REMARK   54  A    between atoms: _133  and  _136
REMARK   55  A    between atoms: _139  and  _141
REMARK   56  A    between atoms: _141  and  _142
REMARK   57  A    between atoms: _141  and  _144
REMARK   58  A    between atoms: _144  and  _145
REMARK   59  A    between atoms: _150  and  _151
REMARK   60  A    between atoms: _153  and  _155
REMARK   61  A    between atoms: _155  and  _156
REMARK   62  A    between atoms: _155  and  _158
REMARK   63  A    between atoms: _158  and  _159
REMARK   64  A    between atoms: _159  and  _160
REMARK   65  A    between atoms: _162  and  _164
REMARK   66  A    between atoms: _164  and  _165
REMARK   67  A    between atoms: _164  and  _167
REMARK   68  A    between atoms: _167  and  _168
REMARK   69  A    between atoms: _168  and  _169
REMARK   70  A    between atoms: _172  and  _174
REMARK   71  A    between atoms: _174  and  _175
REMARK   72  A    between atoms: _174  and  _177
REMARK   73  A    between atoms: _177  and  _178
REMARK   74  A    between atoms: _178  and  _179
REMARK   75  A    between atoms: _182  and  _184
REMARK   76  A    between atoms: _184  and  _185
REMARK   77  A    between atoms: _184  and  _187
REMARK   78  A    between atoms: _187  and  _188
REMARK   79  A    between atoms: _193  and  _194
REMARK   80  A    between atoms: _196  and  _198
REMARK   81  A    between atoms: _198  and  _199
REMARK   82  A    between atoms: _198  and  _201
REMARK   83  A    between atoms: _201  and  _202
REMARK   84  A    between atoms: _212  and  _214
REMARK   85  A    between atoms: _214  and  _215
REMARK   86  A    between atoms: _214  and  _217
REMARK   87  A    between atoms: _217  and  _218
REMARK   88  A    between atoms: _218  and  _219
REMARK   89  A    between atoms: _222  and  _224
REMARK   90  A    between atoms: _224  and  _225
REMARK   91  A    between atoms: _224  and  _227
REMARK   92  A    between atoms: _227  and  _228
REMARK   93  A    between atoms: _228  and  _229
REMARK   94  A    between atoms: _229  and  _230
REMARK   95  A    between atoms: _239  and  _241
REMARK   96  A    between atoms: _241  and  _242
REMARK   97  A    between atoms: _241  and  _244
REMARK   98  A    between atoms: _244  and  _245
REMARK   99  A    between atoms: _245  and  _246
REMARK  100  A    between atoms: _249  and  _251
REMARK  101  A    between atoms: _251  and  _252
REMARK  102  A    between atoms: _251  and  _254
REMARK  103  A    between atoms: _254  and  _255
REMARK  104  A    between atoms: _258  and  _260
REMARK  105  A    between atoms: _260  and  _261
REMARK  106  A    between atoms: _260  and  _263
REMARK  107  A    between atoms: _263  and  _264
REMARK  108  A    between atoms: _264  and  _265
REMARK  109  A    between atoms: _270  and  _272
REMARK  110  A    between atoms: _272  and  _273
REMARK  111  A    between atoms: _272  and  _275
REMARK  112  A    between atoms: _275  and  _276
REMARK  113  A    between atoms: _276  and  _277
REMARK  114  A    between atoms: _277  and  _278
REMARK  115  A    between atoms: _278  and  _279
REMARK  116  A    between atoms: _283  and  _285
REMARK  117  A    between atoms: _285  and  _286
REMARK  118  A    between atoms: _289  and  _291
REMARK  119  A    between atoms: _291  and  _292
REMARK  120  A    between atoms: _294  and  _296
REMARK  121  A    between atoms: _296  and  _297
REMARK  122  A    between atoms: _296  and  _299
REMARK  123  A    between atoms: _299  and  _300
REMARK  124  A    between atoms: _305  and  _307
REMARK  125  A    between atoms: _307  and  _308
REMARK  126  A    between atoms: _307  and  _310
REMARK  127  A    between atoms: _310  and  _311
REMARK  128  A    between atoms: _311  and  _312
REMARK  129  A    between atoms: _315  and  _317
REMARK  130  A    between atoms: _317  and  _318
REMARK  131  A    between atoms: _317  and  _320
REMARK  132  A    between atoms: _320  and  _321
REMARK  133  A    between atoms: _323  and  _325
REMARK  134  A    between atoms: _325  and  _326
REMARK  135  A    between atoms: _325  and  _328
REMARK  136  A    between atoms: _328  and  _329
REMARK  137  A    between atoms: _335  and  _337
REMARK  138  A    between atoms: _337  and  _338
REMARK  139  A    between atoms: _337  and  _340
REMARK  140  A    between atoms: _343  and  _345
REMARK  141  A    between atoms: _345  and  _346
REMARK  142  A    between atoms: _345  and  _348
REMARK  143  A    between atoms: _348  and  _349
REMARK  144  A    between atoms: _352  and  _354
REMARK  145  A    between atoms: _354  and  _355
REMARK  146  A    between atoms: _354  and  _357
REMARK  147  A    between atoms: _357  and  _358
REMARK  148  A    between atoms: _361  and  _363
REMARK  149  A    between atoms: _363  and  _364
REMARK  150  A    between atoms: _363  and  _366
REMARK  151  A    between atoms: _366  and  _367
REMARK  152  A    between atoms: _370  and  _372
REMARK  153  A    between atoms: _372  and  _373
REMARK  154  A    between atoms: _372  and  _375
REMARK  155  A    between atoms: _375  and  _376
REMARK  156  A    between atoms: _379  and  _381
REMARK  157  A    between atoms: _381  and  _382
REMARK  158  A    between atoms: _381  and  _384
REMARK  159  A    between atoms: _384  and  _385
REMARK  160  A    between atoms: _390  and  _391
REMARK  161  A    between atoms: _393  and  _395
REMARK  162  A    between atoms: _395  and  _396
REMARK  163  A    between atoms: _395  and  _398
REMARK  164  A    between atoms: _398  and  _399
REMARK  165  A    between atoms: _404  and  _405
REMARK  166  A    between atoms: _407  and  _409
REMARK  167  A    between atoms: _409  and  _410
REMARK  168  A    between atoms: _409  and  _412
REMARK  169  A    between atoms: _412  and  _413
REMARK  170  A    between atoms: _416  and  _418
REMARK  171  A    between atoms: _418  and  _419
REMARK  172  A    between atoms: _418  and  _421
REMARK  173  A    between atoms: _421  and  _422
REMARK  174  A    between atoms: _422  and  _423
REMARK  175  A    between atoms: _428  and  _430
REMARK  176  A    between atoms: _430  and  _431
REMARK  177  A    between atoms: _430  and  _433
REMARK  178  A    between atoms: _436  and  _438
REMARK  179  A    between atoms: _438  and  _439
REMARK  180  A    between atoms: _438  and  _441
REMARK  181  A    between atoms: _441  and  _442
REMARK  182  A    between atoms: _445  and  _447
REMARK  183  A    between atoms: _447  and  _448
REMARK  184  A    between atoms: _447  and  _450
REMARK  185  A    between atoms: _450  and  _451
REMARK  186  A    between atoms: _453  and  _455
REMARK  187  A    between atoms: _455  and  _456
REMARK  188  A    between atoms: _458  and  _460
REMARK  189  A    between atoms: _460  and  _461
REMARK  190  A    between atoms: _460  and  _463
REMARK  191  A    between atoms: _463  and  _464
REMARK  192  A    between atoms: _464  and  _790
REMARK  193  A    between atoms: _465  and  _467
REMARK  194  A    between atoms: _467  and  _468
REMARK  195  A    between atoms: _467  and  _470
REMARK  196  A    between atoms: _470  and  _471
REMARK  197  A    between atoms: _476  and  _477
REMARK  198  A    between atoms: _479  and  _481
REMARK  199  A    between atoms: _481  and  _482
REMARK  200  A    between atoms: _481  and  _484
REMARK  201  A    between atoms: _484  and  _485
REMARK  202  A    between atoms: _485  and  _486
REMARK  203  A    between atoms: _491  and  _493
REMARK  204  A    between atoms: _493  and  _494
REMARK  205  A    between atoms: _493  and  _496
REMARK  206  A    between atoms: _496  and  _497
REMARK  207  A    between atoms: _497  and  _498
REMARK  208  A    between atoms: _503  and  _505
REMARK  209  A    between atoms: _505  and  _506
REMARK  210  A    between atoms: _505  and  _508
REMARK  211  A    between atoms: _508  and  _509
REMARK  212  A    between atoms: _514  and  _515
REMARK  213  A    between atoms: _517  and  _519
REMARK  214  A    between atoms: _519  and  _520
REMARK  215  A    between atoms: _523  and  _525
REMARK  216  A    between atoms: _525  and  _526
REMARK  217  A    between atoms: _525  and  _528
REMARK  218  A    between atoms: _528  and  _529
REMARK  219  A    between atoms: _534  and  _535
REMARK  220  A    between atoms: _537  and  _539
REMARK  221  A    between atoms: _539  and  _540
REMARK  222  A    between atoms: _539  and  _542
REMARK  223  A    between atoms: _542  and  _543
REMARK  224  A    between atoms: _548  and  _549
REMARK  225  A    between atoms: _551  and  _553
REMARK  226  A    between atoms: _553  and  _554
REMARK  227  A    between atoms: _553  and  _556
REMARK  228  A    between atoms: _556  and  _557
REMARK  229  A    between atoms: _560  and  _562
REMARK  230  A    between atoms: _562  and  _563
REMARK  231  A    between atoms: _562  and  _565
REMARK  232  A    between atoms: _565  and  _566
REMARK  233  A    between atoms: _576  and  _578
REMARK  234  A    between atoms: _578  and  _579
REMARK  235  A    between atoms: _582  and  _584
REMARK  236  A    between atoms: _584  and  _585
REMARK  237  A    between atoms: _588  and  _590
REMARK  238  A    between atoms: _590  and  _591
REMARK  239  A    between atoms: _590  and  _593
REMARK  240  A    between atoms: _593  and  _594
REMARK  241  A    between atoms: _597  and  _599
REMARK  242  A    between atoms: _599  and  _600
REMARK  243  A    between atoms: _599  and  _602
REMARK  244  A    between atoms: _602  and  _603
REMARK  245  A    between atoms: _606  and  _608
REMARK  246  A    between atoms: _608  and  _609
REMARK  247  A    between atoms: _608  and  _611
REMARK  248  A    between atoms: _611  and  _612
REMARK  249  A    between atoms: _615  and  _617
REMARK  250  A    between atoms: _617  and  _618
REMARK  251  A    between atoms: _617  and  _620
REMARK  252  A    between atoms: _620  and  _621
REMARK  253  A    between atoms: _621  and  _622
REMARK  254  A    between atoms: _622  and  _623
REMARK  255  A    between atoms: _623  and  _624
REMARK  256  A    between atoms: _628  and  _630
REMARK  257  A    between atoms: _630  and  _631
REMARK  258  A    between atoms: _630  and  _633
REMARK  259  A    between atoms: _633  and  _634
REMARK  260  A    between atoms: _639  and  _641
REMARK  261  A    between atoms: _641  and  _642
REMARK  262  A    between atoms: _641  and  _644
REMARK  263  A    between atoms: _644  and  _645
REMARK  264  A    between atoms: _645  and  _646
REMARK  265  A    between atoms: _646  and  _647
REMARK  266  A    between atoms: _647  and  _648
REMARK  267  A    between atoms: _652  and  _654
REMARK  268  A    between atoms: _654  and  _655
REMARK  269  A    between atoms: _654  and  _657
REMARK  270  A    between atoms: _657  and  _658
REMARK  271  A    between atoms: _668  and  _670
REMARK  272  A    between atoms: _670  and  _671
REMARK  273  A    between atoms: _674  and  _676
REMARK  274  A    between atoms: _676  and  _677
REMARK  275  A    between atoms: _679  and  _681
REMARK  276  A    between atoms: _681  and  _682
REMARK  277  A    between atoms: _685  and  _687
REMARK  278  A    between atoms: _687  and  _688
REMARK  279  A    between atoms: _691  and  _693
REMARK  280  A    between atoms: _693  and  _694
REMARK  281  A    between atoms: _693  and  _696
REMARK  282  A    between atoms: _696  and  _697
REMARK  283  A    between atoms: _697  and  _698
REMARK  284  A    between atoms: _701  and  _703
REMARK  285  A    between atoms: _703  and  _704
REMARK  286  A    between atoms: _703  and  _706
REMARK  287  A    between atoms: _706  and  _707
REMARK  288  A    between atoms: _712  and  _713
REMARK  289  A    between atoms: _715  and  _717
REMARK  290  A    between atoms: _717  and  _718
REMARK  291  A    between atoms: _717  and  _720
REMARK  292  A    between atoms: _720  and  _721
REMARK  293  A    between atoms: _726  and  _727
REMARK  294  A    between atoms: _729  and  _731
REMARK  295  A    between atoms: _731  and  _732
REMARK  296  A    between atoms: _731  and  _734
REMARK  297  A    between atoms: _734  and  _735
REMARK  298  A    between atoms: _735  and  _736
REMARK  299  A    between atoms: _736  and  _737
REMARK  300  A    between atoms: _746  and  _748
REMARK  301  A    between atoms: _748  and  _749
REMARK  302  A    between atoms: _752  and  _754
REMARK  303  A    between atoms: _754  and  _755
REMARK  304  A    between atoms: _754  and  _757
REMARK  305  A    between atoms: _757  and  _758
REMARK  306  A    between atoms: _763  and  _764
REMARK  307  A    between atoms: _766  and  _768
REMARK  308  A    between atoms: _768  and  _769
REMARK  309  A    between atoms: _768  and  _771
REMARK  310  A    between atoms: _771  and  _772
REMARK  311  A    between atoms: _775  and  _777
REMARK  312  A    between atoms: _777  and  _778
REMARK  313  A    between atoms: _777  and  _780
REMARK  314  A    between atoms: _780  and  _781
REMARK  315  A    between atoms: _784  and  _786
REMARK  316  A    between atoms: _786  and  _787
REMARK  317  A    between atoms: _786  and  _789
REMARK  318  A    between atoms: _789  and  _790
REMARK  319  A    between atoms: _791  and  _793
REMARK  320  A    between atoms: _793  and  _794
REMARK  321  A    between atoms: _793  and  _796
REMARK  322  A    between atoms: _799  and  _801
REMARK  323  A    between atoms: _801  and  _802
REMARK  324  A    between atoms: _801  and  _804
REMARK  325  A    between atoms: _804  and  _805
REMARK  326  A    between atoms: _805  and  _806
REMARK  327  A    between atoms: _809  and  _811
REMARK  328  A    between atoms: _811  and  _812
REMARK  329  A    between atoms: _811  and  _814
REMARK  330  A    between atoms: _814  and  _815
REMARK  331  A    between atoms: _825  and  _827
REMARK  332  A    between atoms: _827  and  _828
REMARK  333  A    between atoms: _827  and  _830
REMARK  334  A    between atoms: _830  and  _831
REMARK  335  A    between atoms: _834  and  _836
REMARK  336  A    between atoms: _836  and  _837
REMARK  337  A    between atoms: _836  and  _839
REMARK  338  A    between atoms: _839  and  _840
REMARK  339  A    between atoms: _840  and  _841
REMARK  340  A    between atoms: _841  and  _842
REMARK  341  A    between atoms: _851  and  _853
REMARK  342  A    between atoms: _853  and  _854
REMARK  343  A    between atoms: _853  and  _856
REMARK  344  A    between atoms: _856  and  _857
REMARK  345  A    between atoms: _862  and  _863
REMARK                            x       y       z     vdW  Elec       q    Type
REMARK                         _______ _______ _______ _____ _____    ______ ____
ROOT
ATOM      1  CA  TYR A   3      46.300  49.955  -0.277  0.00  0.00    +0.153 C 
ENDROOT
BRANCH   1   4
ATOM      2  C   ARG A   2      48.573  49.414   0.383  0.00  0.00    +0.241 C 
ATOM      3  O   ARG A   2      48.229  49.198   1.544  0.00  0.00    -0.273 OA
ATOM      4  N   TYR A   3      47.719  49.798  -0.555  0.00  0.00    -0.297 N 
ATOM      5  H   TYR A   3      48.072  49.992  -1.514  0.00  0.00    +0.150 HD
BRANCH   2   6
ATOM      6  CA  ARG A   2      50.014  49.243  -0.052  0.00  0.00    +0.149 C 
BRANCH   6   8
ATOM      7  C   LEU A   1      51.997  50.380   0.766  0.00  0.00    +0.238 C 
ATOM      8  N   ARG A   2      50.958  49.587   1.007  0.00  0.00    -0.297 N 
ATOM      9  H   ARG A   2      50.815  49.206   1.964  0.00  0.00    +0.150 HD
ATOM     10  O   LEU A   1      52.226  50.848  -0.350  0.00  0.00    -0.274 OA
BRANCH   7  11
ATOM     11  CA  LEU A   1      52.943  50.657   1.925  0.00  0.00    +0.145 C 
BRANCH  11  12
ATOM     12  N   LEU A   1      54.176  50.115   1.390  0.00  0.00    -0.238 NA
ATOM     13  H   LEU A   1      54.481  50.416   0.442  0.00  0.00    +0.142 HD
ENDBRANCH  11  12
BRANCH  11  14
ATOM     14  CB  LEU A   1      53.067  52.177   2.191  0.00  0.00    +0.026 C 
BRANCH  14  15
ATOM     15  CG  LEU A   1      51.730  52.881   2.488  0.00  0.00    +0.002 C 
ATOM     16  CD2 LEU A   1      50.998  52.209   3.654  0.00  0.00    +0.000 C 
ATOM     17  CD1 LEU A   1      52.028  54.359   2.839  0.00  0.00    +0.000 C 
ENDBRANCH  14  15
ENDBRANCH  11  14
ENDBRANCH   7  11
ENDBRANCH   6   8
BRANCH   6  18
ATOM     18  CB  ARG A   2      50.205  47.775  -0.494  0.00  0.00    +0.033 C 
BRANCH  18  19
ATOM     19  CG  ARG A   2      51.536  47.429  -1.128  0.00  0.00    +0.045 C 
BRANCH  19  20
ATOM     20  CD  ARG A   2      51.587  45.919  -1.423  0.00  0.00    +0.174 C 
BRANCH  20  21
ATOM     21  NE  ARG A   2      51.578  45.135  -0.188  0.00  0.00    -0.265 N 
ATOM     22  HE  ARG A   2      51.782  45.633   0.702  0.00  0.00    +0.259 HD
ATOM     23  CZ  ARG A   2      51.327  43.828  -0.122  0.00  0.00    +0.342 C 
ATOM     24  NH2 ARG A   2      51.342  43.212   1.058  0.00  0.00    -0.292 N 
ATOM     25 HH21 ARG A   2      51.549  43.751   1.923  0.00  0.00    +0.255 HD
ATOM     26 HH22 ARG A   2      51.147  42.192   1.115  0.00  0.00    +0.255 HD
ATOM     27  NH1 ARG A   2      51.056  43.138  -1.229  0.00  0.00    -0.292 N 
ATOM     28 HH11 ARG A   2      50.861  42.118  -1.171  0.00  0.00    +0.255 HD
ATOM     29 HH12 ARG A   2      51.040  43.619  -2.151  0.00  0.00    +0.255 HD
ENDBRANCH  20  21
ENDBRANCH  19  20
ENDBRANCH  18  19
ENDBRANCH   6  18
ENDBRANCH   2   6
ENDBRANCH   1   4
BRANCH   1  30
ATOM     30  C   TYR A   3      45.543  49.139  -1.314  0.00  0.00    +0.241 C 
ATOM     31  N   PHE A   4      44.720  48.211  -0.827  0.00  0.00    -0.297 N 
ATOM     32  H   PHE A   4      44.664  48.085   0.204  0.00  0.00    +0.150 HD
ATOM     33  O   TYR A   3      45.726  49.320  -2.524  0.00  0.00    -0.273 OA
BRANCH  31  34
ATOM     34  CA  PHE A   4      43.892  47.363  -1.684  0.00  0.00    +0.153 C 
BRANCH  34  35
ATOM     35  C   PHE A   4      42.490  47.923  -1.590  0.00  0.00    +0.241 C 
ATOM     36  O   PHE A   4      41.873  47.906  -0.515  0.00  0.00    -0.273 OA
ATOM     37  N   VAL A   5      41.980  48.401  -2.719  0.00  0.00    -0.297 N 
ATOM     38  H   VAL A   5      42.538  48.345  -3.595  0.00  0.00    +0.150 HD
BRANCH  37  39
ATOM     39  CA  VAL A   5      40.662  48.999  -2.754  0.00  0.00    +0.149 C 
BRANCH  39  40
ATOM     40  C   VAL A   5      39.687  48.234  -3.624  0.00  0.00    +0.241 C 
ATOM     41  N   THR A   6      38.475  48.087  -3.116  0.00  0.00    -0.296 N 
ATOM     42  H   THR A   6      38.260  48.486  -2.180  0.00  0.00    +0.150 HD
ATOM     43  O   VAL A   5      40.019  47.809  -4.732  0.00  0.00    -0.273 OA
BRANCH  41  44
ATOM     44  CA  THR A   6      37.442  47.378  -3.844  0.00  0.00    +0.164 C 
BRANCH  44  45
ATOM     45  C   THR A   6      36.080  48.036  -3.766  0.00  0.00    +0.229 C 
ATOM     46  O   THR A   6      35.602  48.342  -2.678  0.00  0.00    -0.286 OA
ENDBRANCH  44  45
BRANCH  44  47
ATOM     47  CB  THR A   6      37.234  45.938  -3.306  0.00  0.00    +0.136 C 
ATOM     48  CG2 THR A   6      36.464  45.131  -4.333  0.00  0.00    +0.034 C 
BRANCH  47  49
ATOM     49  OG1 THR A   6      38.501  45.312  -3.056  0.00  0.00    -0.382 OA
ATOM     50  HG1 THR A   6      39.002  45.839  -2.384  0.00  0.00    +0.210 HD
ENDBRANCH  47  49
ENDBRANCH  44  47
ENDBRANCH  41  44
ENDBRANCH  39  40
BRANCH  39  51
ATOM     51  CB  VAL A   5      40.718  50.468  -3.280  0.00  0.00    +0.027 C 
ATOM     52  CG2 VAL A   5      41.602  51.305  -2.379  0.00  0.00    +0.002 C 
ATOM     53  CG1 VAL A   5      39.315  51.049  -3.336  0.00  0.00    +0.002 C 
ENDBRANCH  39  51
ENDBRANCH  37  39
ENDBRANCH  34  35
BRANCH  34  54
ATOM     54  CB  PHE A   4      43.879  45.900  -1.193  0.00  0.00    +0.055 C 
BRANCH  54  55
ATOM     55  CG  PHE A   4      45.188  45.202  -1.355  0.00  0.00    -0.020 A 
ATOM     56  CD2 PHE A   4      46.202  45.377  -0.426  0.00  0.00    -0.004 A 
ATOM     57  CE2 PHE A   4      47.444  44.747  -0.581  0.00  0.00    -0.000 A 
ATOM     58  CZ  PHE A   4      47.664  43.928  -1.694  0.00  0.00    -0.000 A 
ATOM     59  CE1 PHE A   4      46.647  43.751  -2.634  0.00  0.00    -0.000 A 
ATOM     60  CD1 PHE A   4      45.418  44.387  -2.459  0.00  0.00    -0.004 A 
ENDBRANCH  54  55
ENDBRANCH  34  54
ENDBRANCH  31  34
ENDBRANCH   1  30
BRANCH   1  61
ATOM     61  CB  TYR A   3      45.859  51.439  -0.353  0.00  0.00    +0.055 C 
BRANCH  61  62
ATOM     62  CG  TYR A   3      46.302  52.258   0.837  0.00  0.00    -0.020 A 
ATOM     63  CD2 TYR A   3      45.500  52.369   1.971  0.00  0.00    -0.001 A 
ATOM     64  CE2 TYR A   3      45.943  53.065   3.098  0.00  0.00    +0.036 A 
ATOM     65  CZ  TYR A   3      47.204  53.662   3.083  0.00  0.00    +0.134 A 
ATOM     66  CE1 TYR A   3      48.004  53.572   1.970  0.00  0.00    +0.036 A 
ATOM     67  CD1 TYR A   3      47.551  52.869   0.851  0.00  0.00    -0.001 A 
BRANCH  65  68
ATOM     68  OH  TYR A   3      47.678  54.315   4.202  0.00  0.00    -0.506 OA
ATOM     69  HH  TYR A   3      46.988  54.294   4.912  0.00  0.00    +0.292 HD
ENDBRANCH  65  68
ENDBRANCH  61  62
ENDBRANCH   1  61
TORSDOF 26
REMARK  Name = ../refined-set-2016/1fzj/1fzj_pocket.pdb
REMARK  345 active torsions:
REMARK  status: ('A' for Active; 'I' for Inactive)
REMARK    1  A    between atoms: _1  and  _3
REMARK    2  A    between atoms: _3  and  _4
REMARK    3  A    between atoms: _3  and  _6
REMARK    4  A    between atoms: _6  and  _7
REMARK    5  A    between atoms: _10  and  _12
REMARK    6  A    between atoms: _12  and  _13
REMARK    7  A    between atoms: _12  and  _15
REMARK    8  A    between atoms: _15  and  _16
REMARK    9  A    between atoms: _16  and  _17
REMARK   10  A    between atoms: _17  and  _18
REMARK   11  A    between atoms: _27  and  _29
REMARK   12  A    between atoms: _29  and  _30
REMARK   13  A    between atoms: _29  and  _32
REMARK   14  A    between atoms: _32  and  _33
REMARK   15  A    between atoms: _38  and  _39
REMARK   16  A    between atoms: _41  and  _43
REMARK   17  A    between atoms: _43  and  _44
REMARK   18  A    between atoms: _43  and  _46
REMARK   19  A    between atoms: _46  and  _47
REMARK   20  A    between atoms: _53  and  _55
REMARK   21  A    between atoms: _55  and  _56
REMARK   22  A    between atoms: _55  and  _58
REMARK   23  A    between atoms: _61  and  _63
REMARK   24  A    between atoms: _63  and  _64
REMARK   25  A    between atoms: _63  and  _66
REMARK   26  A    between atoms: _66  and  _67
REMARK   27  A    between atoms: _70  and  _72
REMARK   28  A    between atoms: _72  and  _73
REMARK   29  A    between atoms: _72  and  _75
REMARK   30  A    between atoms: _75  and  _76
REMARK   31  A    between atoms: _81  and  _82
REMARK   32  A    between atoms: _84  and  _86
REMARK   33  A    between atoms: _86  and  _87
REMARK   34  A    between atoms: _86  and  _89
REMARK   35  A    between atoms: _89  and  _90
REMARK   36  A    between atoms: _90  and  _91
REMARK   37  A    between atoms: _93  and  _95
REMARK   38  A    between atoms: _95  and  _96
REMARK   39  A    between atoms: _95  and  _98
REMARK   40  A    between atoms: _98  and  _99
REMARK   41  A    between atoms: _99  and  _100
REMARK   42  A    between atoms: _103  and  _105
REMARK   43  A    between atoms: _105  and  _106
REMARK   44  A    between atoms: _105  and  _108
REMARK   45  A    between atoms: _111  and  _113
REMARK   46  A    between atoms: _113  and  _114
REMARK   47  A    between atoms: _113  and  _116
REMARK   48  A    between atoms: _119  and  _121
REMARK   49  A    between atoms: _121  and  _122
REMARK   50  A    between atoms: _121  and  _124
REMARK   51  A    between atoms: _124  and  _125
REMARK   52  A    between atoms: _131  and  _133
REMARK   53  A    between atoms: _133  and  _134
REMARK   54  A    between atoms: _133  and  _136
REMARK   55  A    between atoms: _139  and  _141
REMARK   56  A    between atoms: _141  and  _142
REMARK   57  A    between atoms: _141  and  _144
REMARK   58  A    between atoms: _144  and  _145
REMARK   59  A    between atoms: _150  and  _151
REMARK   60  A    between atoms: _153  and  _155
REMARK   61  A    between atoms: _155  and  _156
REMARK   62  A    between atoms: _155  and  _158
REMARK   63  A    between atoms: _158  and  _159
REMARK   64  A    between atoms: _159  and  _160
REMARK   65  A    between atoms: _162  and  _164
REMARK   66  A    between atoms: _164  and  _165
REMARK   67  A    between atoms: _164  and  _167
REMARK   68  A    between atoms: _167  and  _168
REMARK   69  A    between atoms: _168  and  _169
REMARK   70  A    between atoms: _172  and  _174
REMARK   71  A    between atoms: _174  and  _175
REMARK   72  A    between atoms: _174  and  _177
REMARK   73  A    between atoms: _177  and  _178
REMARK   74  A    between atoms: _178  and  _179
REMARK   75  A    between atoms: _182  and  _184
REMARK   76  A    between atoms: _184  and  _185
REMARK   77  A    between atoms: _184  and  _187
REMARK   78  A    between atoms: _187  and  _188
REMARK   79  A    between atoms: _193  and  _194
REMARK   80  A    between atoms: _196  and  _198
REMARK   81  A    between atoms: _198  and  _199
REMARK   82  A    between atoms: _198  and  _201
REMARK   83  A    between atoms: _201  and  _202
REMARK   84  A    between atoms: _212  and  _214
REMARK   85  A    between atoms: _214  and  _215
REMARK   86  A    between atoms: _214  and  _217
REMARK   87  A    between atoms: _217  and  _218
REMARK   88  A    between atoms: _218  and  _219
REMARK   89  A    between atoms: _222  and  _224
REMARK   90  A    between atoms: _224  and  _225
REMARK   91  A    between atoms: _224  and  _227
REMARK   92  A    between atoms: _227  and  _228
REMARK   93  A    between atoms: _228  and  _229
REMARK   94  A    between atoms: _229  and  _230
REMARK   95  A    between atoms: _239  and  _241
REMARK   96  A    between atoms: _241  and  _242
REMARK   97  A    between atoms: _241  and  _244
REMARK   98  A    between atoms: _244  and  _245
REMARK   99  A    between atoms: _245  and  _246
REMARK  100  A    between atoms: _249  and  _251
REMARK  101  A    between atoms: _251  and  _252
REMARK  102  A    between atoms: _251  and  _254
REMARK  103  A    between atoms: _254  and  _255
REMARK  104  A    between atoms: _258  and  _260
REMARK  105  A    between atoms: _260  and  _261
REMARK  106  A    between atoms: _260  and  _263
REMARK  107  A    between atoms: _263  and  _264
REMARK  108  A    between atoms: _264  and  _265
REMARK  109  A    between atoms: _270  and  _272
REMARK  110  A    between atoms: _272  and  _273
REMARK  111  A    between atoms: _272  and  _275
REMARK  112  A    between atoms: _275  and  _276
REMARK  113  A    between atoms: _276  and  _277
REMARK  114  A    between atoms: _277  and  _278
REMARK  115  A    between atoms: _278  and  _279
REMARK  116  A    between atoms: _283  and  _285
REMARK  117  A    between atoms: _285  and  _286
REMARK  118  A    between atoms: _289  and  _291
REMARK  119  A    between atoms: _291  and  _292
REMARK  120  A    between atoms: _294  and  _296
REMARK  121  A    between atoms: _296  and  _297
REMARK  122  A    between atoms: _296  and  _299
REMARK  123  A    between atoms: _299  and  _300
REMARK  124  A    between atoms: _305  and  _307
REMARK  125  A    between atoms: _307  and  _308
REMARK  126  A    between atoms: _307  and  _310
REMARK  127  A    between atoms: _310  and  _311
REMARK  128  A    between atoms: _311  and  _312
REMARK  129  A    between atoms: _315  and  _317
REMARK  130  A    between atoms: _317  and  _318
REMARK  131  A    between atoms: _317  and  _320
REMARK  132  A    between atoms: _320  and  _321
REMARK  133  A    between atoms: _323  and  _325
REMARK  134  A    between atoms: _325  and  _326
REMARK  135  A    between atoms: _325  and  _328
REMARK  136  A    between atoms: _328  and  _329
REMARK  137  A    between atoms: _335  and  _337
REMARK  138  A    between atoms: _337  and  _338
REMARK  139  A    between atoms: _337  and  _340
REMARK  140  A    between atoms: _343  and  _345
REMARK  141  A    between atoms: _345  and  _346
REMARK  142  A    between atoms: _345  and  _348
REMARK  143  A    between atoms: _348  and  _349
REMARK  144  A    between atoms: _352  and  _354
REMARK  145  A    between atoms: _354  and  _355
REMARK  146  A    between atoms: _354  and  _357
REMARK  147  A    between atoms: _357  and  _358
REMARK  148  A    between atoms: _361  and  _363
REMARK  149  A    between atoms: _363  and  _364
REMARK  150  A    between atoms: _363  and  _366
REMARK  151  A    between atoms: _366  and  _367
REMARK  152  A    between atoms: _370  and  _372
REMARK  153  A    between atoms: _372  and  _373
REMARK  154  A    between atoms: _372  and  _375
REMARK  155  A    between atoms: _375  and  _376
REMARK  156  A    between atoms: _379  and  _381
REMARK  157  A    between atoms: _381  and  _382
REMARK  158  A    between atoms: _381  and  _384
REMARK  159  A    between atoms: _384  and  _385
REMARK  160  A    between atoms: _390  and  _391
REMARK  161  A    between atoms: _393  and  _395
REMARK  162  A    between atoms: _395  and  _396
REMARK  163  A    between atoms: _395  and  _398
REMARK  164  A    between atoms: _398  and  _399
REMARK  165  A    between atoms: _404  and  _405
REMARK  166  A    between atoms: _407  and  _409
REMARK  167  A    between atoms: _409  and  _410
REMARK  168  A    between atoms: _409  and  _412
REMARK  169  A    between atoms: _412  and  _413
REMARK  170  A    between atoms: _416  and  _418
REMARK  171  A    between atoms: _418  and  _419
REMARK  172  A    between atoms: _418  and  _421
REMARK  173  A    between atoms: _421  and  _422
REMARK  174  A    between atoms: _422  and  _423
REMARK  175  A    between atoms: _428  and  _430
REMARK  176  A    between atoms: _430  and  _431
REMARK  177  A    between atoms: _430  and  _433
REMARK  178  A    between atoms: _436  and  _438
REMARK  179  A    between atoms: _438  and  _439
REMARK  180  A    between atoms: _438  and  _441
REMARK  181  A    between atoms: _441  and  _442
REMARK  182  A    between atoms: _445  and  _447
REMARK  183  A    between atoms: _447  and  _448
REMARK  184  A    between atoms: _447  and  _450
REMARK  185  A    between atoms: _450  and  _451
REMARK  186  A    between atoms: _453  and  _455
REMARK  187  A    between atoms: _455  and  _456
REMARK  188  A    between atoms: _458  and  _460
REMARK  189  A    between atoms: _460  and  _461
REMARK  190  A    between atoms: _460  and  _463
REMARK  191  A    between atoms: _463  and  _464
REMARK  192  A    between atoms: _464  and  _790
REMARK  193  A    between atoms: _465  and  _467
REMARK  194  A    between atoms: _467  and  _468
REMARK  195  A    between atoms: _467  and  _470
REMARK  196  A    between atoms: _470  and  _471
REMARK  197  A    between atoms: _476  and  _477
REMARK  198  A    between atoms: _479  and  _481
REMARK  199  A    between atoms: _481  and  _482
REMARK  200  A    between atoms: _481  and  _484
REMARK  201  A    between atoms: _484  and  _485
REMARK  202  A    between atoms: _485  and  _486
REMARK  203  A    between atoms: _491  and  _493
REMARK  204  A    between atoms: _493  and  _494
REMARK  205  A    between atoms: _493  and  _496
REMARK  206  A    between atoms: _496  and  _497
REMARK  207  A    between atoms: _497  and  _498
REMARK  208  A    between atoms: _503  and  _505
REMARK  209  A    between atoms: _505  and  _506
REMARK  210  A    between atoms: _505  and  _508
REMARK  211  A    between atoms: _508  and  _509
REMARK  212  A    between atoms: _514  and  _515
REMARK  213  A    between atoms: _517  and  _519
REMARK  214  A    between atoms: _519  and  _520
REMARK  215  A    between atoms: _523  and  _525
REMARK  216  A    between atoms: _525  and  _526
REMARK  217  A    between atoms: _525  and  _528
REMARK  218  A    between atoms: _528  and  _529
REMARK  219  A    between atoms: _534  and  _535
REMARK  220  A    between atoms: _537  and  _539
REMARK  221  A    between atoms: _539  and  _540
REMARK  222  A    between atoms: _539  and  _542
REMARK  223  A    between atoms: _542  and  _543
REMARK  224  A    between atoms: _548  and  _549
REMARK  225  A    between atoms: _551  and  _553
REMARK  226  A    between atoms: _553  and  _554
REMARK  227  A    between atoms: _553  and  _556
REMARK  228  A    between atoms: _556  and  _557
REMARK  229  A    between atoms: _560  and  _562
REMARK  230  A    between atoms: _562  and  _563
REMARK  231  A    between atoms: _562  and  _565
REMARK  232  A    between atoms: _565  and  _566
REMARK  233  A    between atoms: _576  and  _578
REMARK  234  A    between atoms: _578  and  _579
REMARK  235  A    between atoms: _582  and  _584
REMARK  236  A    between atoms: _584  and  _585
REMARK  237  A    between atoms: _588  and  _590
REMARK  238  A    between atoms: _590  and  _591
REMARK  239  A    between atoms: _590  and  _593
REMARK  240  A    between atoms: _593  and  _594
REMARK  241  A    between atoms: _597  and  _599
REMARK  242  A    between atoms: _599  and  _600
REMARK  243  A    between atoms: _599  and  _602
REMARK  244  A    between atoms: _602  and  _603
REMARK  245  A    between atoms: _606  and  _608
REMARK  246  A    between atoms: _608  and  _609
REMARK  247  A    between atoms: _608  and  _611
REMARK  248  A    between atoms: _611  and  _612
REMARK  249  A    between atoms: _615  and  _617
REMARK  250  A    between atoms: _617  and  _618
REMARK  251  A    between atoms: _617  and  _620
REMARK  252  A    between atoms: _620  and  _621
REMARK  253  A    between atoms: _621  and  _622
REMARK  254  A    between atoms: _622  and  _623
REMARK  255  A    between atoms: _623  and  _624
REMARK  256  A    between atoms: _628  and  _630
REMARK  257  A    between atoms: _630  and  _631
REMARK  258  A    between atoms: _630  and  _633
REMARK  259  A    between atoms: _633  and  _634
REMARK  260  A    between atoms: _639  and  _641
REMARK  261  A    between atoms: _641  and  _642
REMARK  262  A    between atoms: _641  and  _644
REMARK  263  A    between atoms: _644  and  _645
REMARK  264  A    between atoms: _645  and  _646
REMARK  265  A    between atoms: _646  and  _647
REMARK  266  A    between atoms: _647  and  _648
REMARK  267  A    between atoms: _652  and  _654
REMARK  268  A    between atoms: _654  and  _655
REMARK  269  A    between atoms: _654  and  _657
REMARK  270  A    between atoms: _657  and  _658
REMARK  271  A    between atoms: _668  and  _670
REMARK  272  A    between atoms: _670  and  _671
REMARK  273  A    between atoms: _674  and  _676
REMARK  274  A    between atoms: _676  and  _677
REMARK  275  A    between atoms: _679  and  _681
REMARK  276  A    between atoms: _681  and  _682
REMARK  277  A    between atoms: _685  and  _687
REMARK  278  A    between atoms: _687  and  _688
REMARK  279  A    between atoms: _691  and  _693
REMARK  280  A    between atoms: _693  and  _694
REMARK  281  A    between atoms: _693  and  _696
REMARK  282  A    between atoms: _696  and  _697
REMARK  283  A    between atoms: _697  and  _698
REMARK  284  A    between atoms: _701  and  _703
REMARK  285  A    between atoms: _703  and  _704
REMARK  286  A    between atoms: _703  and  _706
REMARK  287  A    between atoms: _706  and  _707
REMARK  288  A    between atoms: _712  and  _713
REMARK  289  A    between atoms: _715  and  _717
REMARK  290  A    between atoms: _717  and  _718
REMARK  291  A    between atoms: _717  and  _720
REMARK  292  A    between atoms: _720  and  _721
REMARK  293  A    between atoms: _726  and  _727
REMARK  294  A    between atoms: _729  and  _731
REMARK  295  A    between atoms: _731  and  _732
REMARK  296  A    between atoms: _731  and  _734
REMARK  297  A    between atoms: _734  and  _735
REMARK  298  A    between atoms: _735  and  _736
REMARK  299  A    between atoms: _736  and  _737
REMARK  300  A    between atoms: _746  and  _748
REMARK  301  A    between atoms: _748  and  _749
REMARK  302  A    between atoms: _752  and  _754
REMARK  303  A    between atoms: _754  and  _755
REMARK  304  A    between atoms: _754  and  _757
REMARK  305  A    between atoms: _757  and  _758
REMARK  306  A    between atoms: _763  and  _764
REMARK  307  A    between atoms: _766  and  _768
REMARK  308  A    between atoms: _768  and  _769
REMARK  309  A    between atoms: _768  and  _771
REMARK  310  A    between atoms: _771  and  _772
REMARK  311  A    between atoms: _775  and  _777
REMARK  312  A    between atoms: _777  and  _778
REMARK  313  A    between atoms: _777  and  _780
REMARK  314  A    between atoms: _780  and  _781
REMARK  315  A    between atoms: _784  and  _786
REMARK  316  A    between atoms: _786  and  _787
REMARK  317  A    between atoms: _786  and  _789
REMARK  318  A    between atoms: _789  and  _790
REMARK  319  A    between atoms: _791  and  _793
REMARK  320  A    between atoms: _793  and  _794
REMARK  321  A    between atoms: _793  and  _796
REMARK  322  A    between atoms: _799  and  _801
REMARK  323  A    between atoms: _801  and  _802
REMARK  324  A    between atoms: _801  and  _804
REMARK  325  A    between atoms: _804  and  _805
REMARK  326  A    between atoms: _805  and  _806
REMARK  327  A    between atoms: _809  and  _811
REMARK  328  A    between atoms: _811  and  _812
REMARK  329  A    between atoms: _811  and  _814
REMARK  330  A    between atoms: _814  and  _815
REMARK  331  A    between atoms: _825  and  _827
REMARK  332  A    between atoms: _827  and  _828
REMARK  333  A    between atoms: _827  and  _830
REMARK  334  A    between atoms: _830  and  _831
REMARK  335  A    between atoms: _834  and  _836
REMARK  336  A    between atoms: _836  and  _837
REMARK  337  A    between atoms: _836  and  _839
REMARK  338  A    between atoms: _839  and  _840
REMARK  339  A    between atoms: _840  and  _841
REMARK  340  A    between atoms: _841  and  _842
REMARK  341  A    between atoms: _851  and  _853
REMARK  342  A    between atoms: _853  and  _854
REMARK  343  A    between atoms: _853  and  _856
REMARK  344  A    between atoms: _856  and  _857
REMARK  345  A    between atoms: _862  and  _863
REMARK                            x       y       z     vdW  Elec       q    Type
REMARK                         _______ _______ _______ _____ _____    ______ ____
ROOT
ATOM      1  CA  MET A   2      36.425  48.712   1.041  0.00  0.00    +0.149 C 
ENDROOT
BRANCH   1   4
ATOM      2  C   TYR A   1      34.268  49.579   0.398  0.00  0.00    +0.239 C 
ATOM      3  O   TYR A   1      33.923  49.695   1.566  0.00  0.00    -0.274 OA
ATOM      4  N   MET A   2      35.456  49.119   0.042  0.00  0.00    -0.297 N 
ATOM      5  H   MET A   2      35.698  49.048  -0.967  0.00  0.00    +0.150 HD
BRANCH   2   6
ATOM      6  CA  TYR A   1      33.330  49.953  -0.728  0.00  0.00    +0.149 C 
BRANCH   6   7
ATOM      7  N   TYR A   1      32.032  49.359  -0.480  0.00  0.00    -0.238 NA
ATOM      8  H   TYR A   1      31.534  49.573   0.408  0.00  0.00    +0.142 HD
ENDBRANCH   6   7
BRANCH   6   9
ATOM      9  CB  TYR A   1      33.209  51.485  -0.829  0.00  0.00    +0.053 C 
BRANCH   9  10
ATOM     10  CG  TYR A   1      34.530  52.156  -1.104  0.00  0.00    -0.020 A 
ATOM     11  CD2 TYR A   1      35.211  52.817  -0.095  0.00  0.00    -0.001 A 
ATOM     12  CE2 TYR A   1      36.455  53.404  -0.330  0.00  0.00    +0.036 A 
ATOM     13  CZ  TYR A   1      37.015  53.328  -1.592  0.00  0.00    +0.134 A 
ATOM     14  CE1 TYR A   1      36.357  52.681  -2.616  0.00  0.00    +0.036 A 
ATOM     15  CD1 TYR A   1      35.116  52.094  -2.369  0.00  0.00    -0.001 A 
BRANCH  13  16
ATOM     16  OH  TYR A   1      38.253  53.875  -1.827  0.00  0.00    -0.506 OA
ATOM     17  HH  TYR A   1      38.922  53.440  -1.241  0.00  0.00    +0.292 HD
ENDBRANCH  13  16
ENDBRANCH   9  10
ENDBRANCH   6   9
ENDBRANCH   2   6
ENDBRANCH   1   4
BRANCH   1  18
ATOM     18  C   MET A   2      37.837  49.109   0.725  0.00  0.00    +0.241 C 
ATOM     19  N   GLU A   3      38.563  49.501   1.761  0.00  0.00    -0.297 N 
ATOM     20  H   GLU A   3      38.114  49.564   2.697  0.00  0.00    +0.150 HD
ATOM     21  O   MET A   2      38.263  49.059  -0.419  0.00  0.00    -0.273 OA
BRANCH  19  22
ATOM     22  CA  GLU A   3      39.967  49.846   1.629  0.00  0.00    +0.149 C 
BRANCH  22  23
ATOM     23  C   GLU A   3      40.733  49.073   2.686  0.00  0.00    +0.241 C 
ATOM     24  O   GLU A   3      40.345  49.048   3.849  0.00  0.00    -0.273 OA
ATOM     25  N   VAL A   4      41.824  48.434   2.296  0.00  0.00    -0.298 N 
ATOM     26  H   VAL A   4      42.115  48.448   1.298  0.00  0.00    +0.150 HD
BRANCH  25  27
ATOM     27  CA  VAL A   4      42.609  47.714   3.281  0.00  0.00    +0.137 C 
BRANCH  27  28
ATOM     28  CB  VAL A   4      42.453  46.161   3.157  0.00  0.00    +0.026 C 
ATOM     29  CG2 VAL A   4      43.256  45.474   4.279  0.00  0.00    +0.002 C 
ATOM     30  CG1 VAL A   4      40.990  45.787   3.262  0.00  0.00    +0.002 C 
ENDBRANCH  27  28
BRANCH  27  31
ATOM     31  C   VAL A   4      44.053  48.092   3.065  0.00  0.00    +0.227 C 
ATOM     32  O   VAL A   4      44.593  47.973   1.962  0.00  0.00    -0.286 OA
ENDBRANCH  27  31
ENDBRANCH  25  27
ENDBRANCH  22  23
BRANCH  22  33
ATOM     33  CB  GLU A   3      40.205  51.358   1.852  0.00  0.00    +0.041 C 
BRANCH  33  34
ATOM     34  CG  GLU A   3      39.667  52.230   0.734  0.00  0.00    +0.116 C 
BRANCH  34  35
ATOM     35  CD  GLU A   3      40.028  53.712   0.901  0.00  0.00    +0.365 C 
ATOM     36  OE2 GLU A   3      40.877  54.025   1.755  0.00  0.00    -0.246 OA
ATOM     37  OE1 GLU A   3      39.462  54.548   0.159  0.00  0.00    -0.246 OA
ENDBRANCH  34  35
ENDBRANCH  33  34
ENDBRANCH  22  33
ENDBRANCH  19  22
ENDBRANCH   1  18
BRANCH   1  38
ATOM     38  CB  MET A   2      36.402  47.187   1.227  0.00  0.00    +0.041 C 
BRANCH  38  39
ATOM     39  CG  MET A   2      35.168  46.650   1.927  0.00  0.00    +0.060 C 
BRANCH  39  40
ATOM     40  SD  MET A   2      35.353  44.834   2.258  0.00  0.00    -0.139 S 
ATOM     41  CE  MET A   2      36.134  44.876   3.880  0.00  0.00    +0.069 C 
ENDBRANCH  39  40
ENDBRANCH  38  39
ENDBRANCH   1  38
TORSDOF 18
REMARK  Name = ../refined-set-2016/1fzj/1fzj_pocket.pdb
REMARK  345 active torsions:
REMARK  status: ('A' for Active; 'I' for Inactive)
REMARK    1  A    between atoms: _1  and  _3
REMARK    2  A    between atoms: _3  and  _4
REMARK    3  A    between atoms: _3  and  _6
REMARK    4  A    between atoms: _6  and  _7
REMARK    5  A    between atoms: _10  and  _12
REMARK    6  A    between atoms: _12  and  _13
REMARK    7  A    between atoms: _12  and  _15
REMARK    8  A    between atoms: _15  and  _16
REMARK    9  A    between atoms: _16  and  _17
REMARK   10  A    between atoms: _17  and  _18
REMARK   11  A    between atoms: _27  and  _29
REMARK   12  A    between atoms: _29  and  _30
REMARK   13  A    between atoms: _29  and  _32
REMARK   14  A    between atoms: _32  and  _33
REMARK   15  A    between atoms: _38  and  _39
REMARK   16  A    between atoms: _41  and  _43
REMARK   17  A    between atoms: _43  and  _44
REMARK   18  A    between atoms: _43  and  _46
REMARK   19  A    between atoms: _46  and  _47
REMARK   20  A    between atoms: _53  and  _55
REMARK   21  A    between atoms: _55  and  _56
REMARK   22  A    between atoms: _55  and  _58
REMARK   23  A    between atoms: _61  and  _63
REMARK   24  A    between atoms: _63  and  _64
REMARK   25  A    between atoms: _63  and  _66
REMARK   26  A    between atoms: _66  and  _67
REMARK   27  A    between atoms: _70  and  _72
REMARK   28  A    between atoms: _72  and  _73
REMARK   29  A    between atoms: _72  and  _75
REMARK   30  A    between atoms: _75  and  _76
REMARK   31  A    between atoms: _81  and  _82
REMARK   32  A    between atoms: _84  and  _86
REMARK   33  A    between atoms: _86  and  _87
REMARK   34  A    between atoms: _86  and  _89
REMARK   35  A    between atoms: _89  and  _90
REMARK   36  A    between atoms: _90  and  _91
REMARK   37  A    between atoms: _93  and  _95
REMARK   38  A    between atoms: _95  and  _96
REMARK   39  A    between atoms: _95  and  _98
REMARK   40  A    between atoms: _98  and  _99
REMARK   41  A    between atoms: _99  and  _100
REMARK   42  A    between atoms: _103  and  _105
REMARK   43  A    between atoms: _105  and  _106
REMARK   44  A    between atoms: _105  and  _108
REMARK   45  A    between atoms: _111  and  _113
REMARK   46  A    between atoms: _113  and  _114
REMARK   47  A    between atoms: _113  and  _116
REMARK   48  A    between atoms: _119  and  _121
REMARK   49  A    between atoms: _121  and  _122
REMARK   50  A    between atoms: _121  and  _124
REMARK   51  A    between atoms: _124  and  _125
REMARK   52  A    between atoms: _131  and  _133
REMARK   53  A    between atoms: _133  and  _134
REMARK   54  A    between atoms: _133  and  _136
REMARK   55  A    between atoms: _139  and  _141
REMARK   56  A    between atoms: _141  and  _142
REMARK   57  A    between atoms: _141  and  _144
REMARK   58  A    between atoms: _144  and  _145
REMARK   59  A    between atoms: _150  and  _151
REMARK   60  A    between atoms: _153  and  _155
REMARK   61  A    between atoms: _155  and  _156
REMARK   62  A    between atoms: _155  and  _158
REMARK   63  A    between atoms: _158  and  _159
REMARK   64  A    between atoms: _159  and  _160
REMARK   65  A    between atoms: _162  and  _164
REMARK   66  A    between atoms: _164  and  _165
REMARK   67  A    between atoms: _164  and  _167
REMARK   68  A    between atoms: _167  and  _168
REMARK   69  A    between atoms: _168  and  _169
REMARK   70  A    between atoms: _172  and  _174
REMARK   71  A    between atoms: _174  and  _175
REMARK   72  A    between atoms: _174  and  _177
REMARK   73  A    between atoms: _177  and  _178
REMARK   74  A    between atoms: _178  and  _179
REMARK   75  A    between atoms: _182  and  _184
REMARK   76  A    between atoms: _184  and  _185
REMARK   77  A    between atoms: _184  and  _187
REMARK   78  A    between atoms: _187  and  _188
REMARK   79  A    between atoms: _193  and  _194
REMARK   80  A    between atoms: _196  and  _198
REMARK   81  A    between atoms: _198  and  _199
REMARK   82  A    between atoms: _198  and  _201
REMARK   83  A    between atoms: _201  and  _202
REMARK   84  A    between atoms: _212  and  _214
REMARK   85  A    between atoms: _214  and  _215
REMARK   86  A    between atoms: _214  and  _217
REMARK   87  A    between atoms: _217  and  _218
REMARK   88  A    between atoms: _218  and  _219
REMARK   89  A    between atoms: _222  and  _224
REMARK   90  A    between atoms: _224  and  _225
REMARK   91  A    between atoms: _224  and  _227
REMARK   92  A    between atoms: _227  and  _228
REMARK   93  A    between atoms: _228  and  _229
REMARK   94  A    between atoms: _229  and  _230
REMARK   95  A    between atoms: _239  and  _241
REMARK   96  A    between atoms: _241  and  _242
REMARK   97  A    between atoms: _241  and  _244
REMARK   98  A    between atoms: _244  and  _245
REMARK   99  A    between atoms: _245  and  _246
REMARK  100  A    between atoms: _249  and  _251
REMARK  101  A    between atoms: _251  and  _252
REMARK  102  A    between atoms: _251  and  _254
REMARK  103  A    between atoms: _254  and  _255
REMARK  104  A    between atoms: _258  and  _260
REMARK  105  A    between atoms: _260  and  _261
REMARK  106  A    between atoms: _260  and  _263
REMARK  107  A    between atoms: _263  and  _264
REMARK  108  A    between atoms: _264  and  _265
REMARK  109  A    between atoms: _270  and  _272
REMARK  110  A    between atoms: _272  and  _273
REMARK  111  A    between atoms: _272  and  _275
REMARK  112  A    between atoms: _275  and  _276
REMARK  113  A    between atoms: _276  and  _277
REMARK  114  A    between atoms: _277  and  _278
REMARK  115  A    between atoms: _278  and  _279
REMARK  116  A    between atoms: _283  and  _285
REMARK  117  A    between atoms: _285  and  _286
REMARK  118  A    between atoms: _289  and  _291
REMARK  119  A    between atoms: _291  and  _292
REMARK  120  A    between atoms: _294  and  _296
REMARK  121  A    between atoms: _296  and  _297
REMARK  122  A    between atoms: _296  and  _299
REMARK  123  A    between atoms: _299  and  _300
REMARK  124  A    between atoms: _305  and  _307
REMARK  125  A    between atoms: _307  and  _308
REMARK  126  A    between atoms: _307  and  _310
REMARK  127  A    between atoms: _310  and  _311
REMARK  128  A    between atoms: _311  and  _312
REMARK  129  A    between atoms: _315  and  _317
REMARK  130  A    between atoms: _317  and  _318
REMARK  131  A    between atoms: _317  and  _320
REMARK  132  A    between atoms: _320  and  _321
REMARK  133  A    between atoms: _323  and  _325
REMARK  134  A    between atoms: _325  and  _326
REMARK  135  A    between atoms: _325  and  _328
REMARK  136  A    between atoms: _328  and  _329
REMARK  137  A    between atoms: _335  and  _337
REMARK  138  A    between atoms: _337  and  _338
REMARK  139  A    between atoms: _337  and  _340
REMARK  140  A    between atoms: _343  and  _345
REMARK  141  A    between atoms: _345  and  _346
REMARK  142  A    between atoms: _345  and  _348
REMARK  143  A    between atoms: _348  and  _349
REMARK  144  A    between atoms: _352  and  _354
REMARK  145  A    between atoms: _354  and  _355
REMARK  146  A    between atoms: _354  and  _357
REMARK  147  A    between atoms: _357  and  _358
REMARK  148  A    between atoms: _361  and  _363
REMARK  149  A    between atoms: _363  and  _364
REMARK  150  A    between atoms: _363  and  _366
REMARK  151  A    between atoms: _366  and  _367
REMARK  152  A    between atoms: _370  and  _372
REMARK  153  A    between atoms: _372  and  _373
REMARK  154  A    between atoms: _372  and  _375
REMARK  155  A    between atoms: _375  and  _376
REMARK  156  A    between atoms: _379  and  _381
REMARK  157  A    between atoms: _381  and  _382
REMARK  158  A    between atoms: _381  and  _384
REMARK  159  A    between atoms: _384  and  _385
REMARK  160  A    between atoms: _390  and  _391
REMARK  161  A    between atoms: _393  and  _395
REMARK  162  A    between atoms: _395  and  _396
REMARK  163  A    between atoms: _395  and  _398
REMARK  164  A    between atoms: _398  and  _399
REMARK  165  A    between atoms: _404  and  _405
REMARK  166  A    between atoms: _407  and  _409
REMARK  167  A    between atoms: _409  and  _410
REMARK  168  A    between atoms: _409  and  _412
REMARK  169  A    between atoms: _412  and  _413
REMARK  170  A    between atoms: _416  and  _418
REMARK  171  A    between atoms: _418  and  _419
REMARK  172  A    between atoms: _418  and  _421
REMARK  173  A    between atoms: _421  and  _422
REMARK  174  A    between atoms: _422  and  _423
REMARK  175  A    between atoms: _428  and  _430
REMARK  176  A    between atoms: _430  and  _431
REMARK  177  A    between atoms: _430  and  _433
REMARK  178  A    between atoms: _436  and  _438
REMARK  179  A    between atoms: _438  and  _439
REMARK  180  A    between atoms: _438  and  _441
REMARK  181  A    between atoms: _441  and  _442
REMARK  182  A    between atoms: _445  and  _447
REMARK  183  A    between atoms: _447  and  _448
REMARK  184  A    between atoms: _447  and  _450
REMARK  185  A    between atoms: _450  and  _451
REMARK  186  A    between atoms: _453  and  _455
REMARK  187  A    between atoms: _455  and  _456
REMARK  188  A    between atoms: _458  and  _460
REMARK  189  A    between atoms: _460  and  _461
REMARK  190  A    between atoms: _460  and  _463
REMARK  191  A    between atoms: _463  and  _464
REMARK  192  A    between atoms: _464  and  _790
REMARK  193  A    between atoms: _465  and  _467
REMARK  194  A    between atoms: _467  and  _468
REMARK  195  A    between atoms: _467  and  _470
REMARK  196  A    between atoms: _470  and  _471
REMARK  197  A    between atoms: _476  and  _477
REMARK  198  A    between atoms: _479  and  _481
REMARK  199  A    between atoms: _481  and  _482
REMARK  200  A    between atoms: _481  and  _484
REMARK  201  A    between atoms: _484  and  _485
REMARK  202  A    between atoms: _485  and  _486
REMARK  203  A    between atoms: _491  and  _493
REMARK  204  A    between atoms: _493  and  _494
REMARK  205  A    between atoms: _493  and  _496
REMARK  206  A    between atoms: _496  and  _497
REMARK  207  A    between atoms: _497  and  _498
REMARK  208  A    between atoms: _503  and  _505
REMARK  209  A    between atoms: _505  and  _506
REMARK  210  A    between atoms: _505  and  _508
REMARK  211  A    between atoms: _508  and  _509
REMARK  212  A    between atoms: _514  and  _515
REMARK  213  A    between atoms: _517  and  _519
REMARK  214  A    between atoms: _519  and  _520
REMARK  215  A    between atoms: _523  and  _525
REMARK  216  A    between atoms: _525  and  _526
REMARK  217  A    between atoms: _525  and  _528
REMARK  218  A    between atoms: _528  and  _529
REMARK  219  A    between atoms: _534  and  _535
REMARK  220  A    between atoms: _537  and  _539
REMARK  221  A    between atoms: _539  and  _540
REMARK  222  A    between atoms: _539  and  _542
REMARK  223  A    between atoms: _542  and  _543
REMARK  224  A    between atoms: _548  and  _549
REMARK  225  A    between atoms: _551  and  _553
REMARK  226  A    between atoms: _553  and  _554
REMARK  227  A    between atoms: _553  and  _556
REMARK  228  A    between atoms: _556  and  _557
REMARK  229  A    between atoms: _560  and  _562
REMARK  230  A    between atoms: _562  and  _563
REMARK  231  A    between atoms: _562  and  _565
REMARK  232  A    between atoms: _565  and  _566
REMARK  233  A    between atoms: _576  and  _578
REMARK  234  A    between atoms: _578  and  _579
REMARK  235  A    between atoms: _582  and  _584
REMARK  236  A    between atoms: _584  and  _585
REMARK  237  A    between atoms: _588  and  _590
REMARK  238  A    between atoms: _590  and  _591
REMARK  239  A    between atoms: _590  and  _593
REMARK  240  A    between atoms: _593  and  _594
REMARK  241  A    between atoms: _597  and  _599
REMARK  242  A    between atoms: _599  and  _600
REMARK  243  A    between atoms: _599  and  _602
REMARK  244  A    between atoms: _602  and  _603
REMARK  245  A    between atoms: _606  and  _608
REMARK  246  A    between atoms: _608  and  _609
REMARK  247  A    between atoms: _608  and  _611
REMARK  248  A    between atoms: _611  and  _612
REMARK  249  A    between atoms: _615  and  _617
REMARK  250  A    between atoms: _617  and  _618
REMARK  251  A    between atoms: _617  and  _620
REMARK  252  A    between atoms: _620  and  _621
REMARK  253  A    between atoms: _621  and  _622
REMARK  254  A    between atoms: _622  and  _623
REMARK  255  A    between atoms: _623  and  _624
REMARK  256  A    between atoms: _628  and  _630
REMARK  257  A    between atoms: _630  and  _631
REMARK  258  A    between atoms: _630  and  _633
REMARK  259  A    between atoms: _633  and  _634
REMARK  260  A    between atoms: _639  and  _641
REMARK  261  A    between atoms: _641  and  _642
REMARK  262  A    between atoms: _641  and  _644
REMARK  263  A    between atoms: _644  and  _645
REMARK  264  A    between atoms: _645  and  _646
REMARK  265  A    between atoms: _646  and  _647
REMARK  266  A    between atoms: _647  and  _648
REMARK  267  A    between atoms: _652  and  _654
REMARK  268  A    between atoms: _654  and  _655
REMARK  269  A    between atoms: _654  and  _657
REMARK  270  A    between atoms: _657  and  _658
REMARK  271  A    between atoms: _668  and  _670
REMARK  272  A    between atoms: _670  and  _671
REMARK  273  A    between atoms: _674  and  _676
REMARK  274  A    between atoms: _676  and  _677
REMARK  275  A    between atoms: _679  and  _681
REMARK  276  A    between atoms: _681  and  _682
REMARK  277  A    between atoms: _685  and  _687
REMARK  278  A    between atoms: _687  and  _688
REMARK  279  A    between atoms: _691  and  _693
REMARK  280  A    between atoms: _693  and  _694
REMARK  281  A    between atoms: _693  and  _696
REMARK  282  A    between atoms: _696  and  _697
REMARK  283  A    between atoms: _697  and  _698
REMARK  284  A    between atoms: _701  and  _703
REMARK  285  A    between atoms: _703  and  _704
REMARK  286  A    between atoms: _703  and  _706
REMARK  287  A    between atoms: _706  and  _707
REMARK  288  A    between atoms: _712  and  _713
REMARK  289  A    between atoms: _715  and  _717
REMARK  290  A    between atoms: _717  and  _718
REMARK  291  A    between atoms: _717  and  _720
REMARK  292  A    between atoms: _720  and  _721
REMARK  293  A    between atoms: _726  and  _727
REMARK  294  A    between atoms: _729  and  _731
REMARK  295  A    between atoms: _731  and  _732
REMARK  296  A    between atoms: _731  and  _734
REMARK  297  A    between atoms: _734  and  _735
REMARK  298  A    between atoms: _735  and  _736
REMARK  299  A    between atoms: _736  and  _737
REMARK  300  A    between atoms: _746  and  _748
REMARK  301  A    between atoms: _748  and  _749
REMARK  302  A    between atoms: _752  and  _754
REMARK  303  A    between atoms: _754  and  _755
REMARK  304  A    between atoms: _754  and  _757
REMARK  305  A    between atoms: _757  and  _758
REMARK  306  A    between atoms: _763  and  _764
REMARK  307  A    between atoms: _766  and  _768
REMARK  308  A    between atoms: _768  and  _769
REMARK  309  A    between atoms: _768  and  _771
REMARK  310  A    between atoms: _771  and  _772
REMARK  311  A    between atoms: _775  and  _777
REMARK  312  A    between atoms: _777  and  _778
REMARK  313  A    between atoms: _777  and  _780
REMARK  314  A    between atoms: _780  and  _781
REMARK  315  A    between atoms: _784  and  _786
REMARK  316  A    between atoms: _786  and  _787
REMARK  317  A    between atoms: _786  and  _789
REMARK  318  A    between atoms: _789  and  _790
REMARK  319  A    between atoms: _791  and  _793
REMARK  320  A    between atoms: _793  and  _794
REMARK  321  A    between atoms: _793  and  _796
REMARK  322  A    between atoms: _799  and  _801
REMARK  323  A    between atoms: _801  and  _802
REMARK  324  A    between atoms: _801  and  _804
REMARK  325  A    between atoms: _804  and  _805
REMARK  326  A    between atoms: _805  and  _806
REMARK  327  A    between atoms: _809  and  _811
REMARK  328  A    between atoms: _811  and  _812
REMARK  329  A    between atoms: _811  and  _814
REMARK  330  A    between atoms: _814  and  _815
REMARK  331  A    between atoms: _825  and  _827
REMARK  332  A    between atoms: _827  and  _828
REMARK  333  A    between atoms: _827  and  _830
REMARK  334  A    between atoms: _830  and  _831
REMARK  335  A    between atoms: _834  and  _836
REMARK  336  A    between atoms: _836  and  _837
REMARK  337  A    between atoms: _836  and  _839
REMARK  338  A    between atoms: _839  and  _840
REMARK  339  A    between atoms: _840  and  _841
REMARK  340  A    between atoms: _841  and  _842
REMARK  341  A    between atoms: _851  and  _853
REMARK  342  A    between atoms: _853  and  _854
REMARK  343  A    between atoms: _853  and  _856
REMARK  344  A    between atoms: _856  and  _857
REMARK  345  A    between atoms: _862  and  _863
REMARK                            x       y       z     vdW  Elec       q    Type
REMARK                         _______ _______ _______ _____ _____    ______ ____
ROOT
ATOM      1  CA  VAL A   1      52.809  47.967   5.649  0.00  0.00    +0.133 C 
ENDROOT
BRANCH   1   2
ATOM      2  CB  VAL A   1      53.169  48.662   6.954  0.00  0.00    +0.023 C 
ATOM      3  CG2 VAL A   1      52.435  50.044   7.032  0.00  0.00    +0.002 C 
ATOM      4  CG1 VAL A   1      54.678  48.855   7.003  0.00  0.00    +0.002 C 
ENDBRANCH   1   2
BRANCH   1   5
ATOM      5  N   VAL A   1      51.431  47.522   5.608  0.00  0.00    -0.239 NA
ATOM      6  H   VAL A   1      51.048  46.987   6.413  0.00  0.00    +0.142 HD
ENDBRANCH   1   5
BRANCH   1   7
ATOM      7  C   VAL A   1      53.487  46.583   5.578  0.00  0.00    +0.224 C 
ATOM      8  O   VAL A   1      53.318  45.759   6.489  0.00  0.00    -0.287 OA
ENDBRANCH   1   7
TORSDOF 3
REMARK  Name = ../refined-set-2016/1fzj/1fzj_pocket.pdb
REMARK  345 active torsions:
REMARK  status: ('A' for Active; 'I' for Inactive)
REMARK    1  A    between atoms: _1  and  _3
REMARK    2  A    between atoms: _3  and  _4
REMARK    3  A    between atoms: _3  and  _6
REMARK    4  A    between atoms: _6  and  _7
REMARK    5  A    between atoms: _10  and  _12
REMARK    6  A    between atoms: _12  and  _13
REMARK    7  A    between atoms: _12  and  _15
REMARK    8  A    between atoms: _15  and  _16
REMARK    9  A    between atoms: _16  and  _17
REMARK   10  A    between atoms: _17  and  _18
REMARK   11  A    between atoms: _27  and  _29
REMARK   12  A    between atoms: _29  and  _30
REMARK   13  A    between atoms: _29  and  _32
REMARK   14  A    between atoms: _32  and  _33
REMARK   15  A    between atoms: _38  and  _39
REMARK   16  A    between atoms: _41  and  _43
REMARK   17  A    between atoms: _43  and  _44
REMARK   18  A    between atoms: _43  and  _46
REMARK   19  A    between atoms: _46  and  _47
REMARK   20  A    between atoms: _53  and  _55
REMARK   21  A    between atoms: _55  and  _56
REMARK   22  A    between atoms: _55  and  _58
REMARK   23  A    between atoms: _61  and  _63
REMARK   24  A    between atoms: _63  and  _64
REMARK   25  A    between atoms: _63  and  _66
REMARK   26  A    between atoms: _66  and  _67
REMARK   27  A    between atoms: _70  and  _72
REMARK   28  A    between atoms: _72  and  _73
REMARK   29  A    between atoms: _72  and  _75
REMARK   30  A    between atoms: _75  and  _76
REMARK   31  A    between atoms: _81  and  _82
REMARK   32  A    between atoms: _84  and  _86
REMARK   33  A    between atoms: _86  and  _87
REMARK   34  A    between atoms: _86  and  _89
REMARK   35  A    between atoms: _89  and  _90
REMARK   36  A    between atoms: _90  and  _91
REMARK   37  A    between atoms: _93  and  _95
REMARK   38  A    between atoms: _95  and  _96
REMARK   39  A    between atoms: _95  and  _98
REMARK   40  A    between atoms: _98  and  _99
REMARK   41  A    between atoms: _99  and  _100
REMARK   42  A    between atoms: _103  and  _105
REMARK   43  A    between atoms: _105  and  _106
REMARK   44  A    between atoms: _105  and  _108
REMARK   45  A    between atoms: _111  and  _113
REMARK   46  A    between atoms: _113  and  _114
REMARK   47  A    between atoms: _113  and  _116
REMARK   48  A    between atoms: _119  and  _121
REMARK   49  A    between atoms: _121  and  _122
REMARK   50  A    between atoms: _121  and  _124
REMARK   51  A    between atoms: _124  and  _125
REMARK   52  A    between atoms: _131  and  _133
REMARK   53  A    between atoms: _133  and  _134
REMARK   54  A    between atoms: _133  and  _136
REMARK   55  A    between atoms: _139  and  _141
REMARK   56  A    between atoms: _141  and  _142
REMARK   57  A    between atoms: _141  and  _144
REMARK   58  A    between atoms: _144  and  _145
REMARK   59  A    between atoms: _150  and  _151
REMARK   60  A    between atoms: _153  and  _155
REMARK   61  A    between atoms: _155  and  _156
REMARK   62  A    between atoms: _155  and  _158
REMARK   63  A    between atoms: _158  and  _159
REMARK   64  A    between atoms: _159  and  _160
REMARK   65  A    between atoms: _162  and  _164
REMARK   66  A    between atoms: _164  and  _165
REMARK   67  A    between atoms: _164  and  _167
REMARK   68  A    between atoms: _167  and  _168
REMARK   69  A    between atoms: _168  and  _169
REMARK   70  A    between atoms: _172  and  _174
REMARK   71  A    between atoms: _174  and  _175
REMARK   72  A    between atoms: _174  and  _177
REMARK   73  A    between atoms: _177  and  _178
REMARK   74  A    between atoms: _178  and  _179
REMARK   75  A    between atoms: _182  and  _184
REMARK   76  A    between atoms: _184  and  _185
REMARK   77  A    between atoms: _184  and  _187
REMARK   78  A    between atoms: _187  and  _188
REMARK   79  A    between atoms: _193  and  _194
REMARK   80  A    between atoms: _196  and  _198
REMARK   81  A    between atoms: _198  and  _199
REMARK   82  A    between atoms: _198  and  _201
REMARK   83  A    between atoms: _201  and  _202
REMARK   84  A    between atoms: _212  and  _214
REMARK   85  A    between atoms: _214  and  _215
REMARK   86  A    between atoms: _214  and  _217
REMARK   87  A    between atoms: _217  and  _218
REMARK   88  A    between atoms: _218  and  _219
REMARK   89  A    between atoms: _222  and  _224
REMARK   90  A    between atoms: _224  and  _225
REMARK   91  A    between atoms: _224  and  _227
REMARK   92  A    between atoms: _227  and  _228
REMARK   93  A    between atoms: _228  and  _229
REMARK   94  A    between atoms: _229  and  _230
REMARK   95  A    between atoms: _239  and  _241
REMARK   96  A    between atoms: _241  and  _242
REMARK   97  A    between atoms: _241  and  _244
REMARK   98  A    between atoms: _244  and  _245
REMARK   99  A    between atoms: _245  and  _246
REMARK  100  A    between atoms: _249  and  _251
REMARK  101  A    between atoms: _251  and  _252
REMARK  102  A    between atoms: _251  and  _254
REMARK  103  A    between atoms: _254  and  _255
REMARK  104  A    between atoms: _258  and  _260
REMARK  105  A    between atoms: _260  and  _261
REMARK  106  A    between atoms: _260  and  _263
REMARK  107  A    between atoms: _263  and  _264
REMARK  108  A    between atoms: _264  and  _265
REMARK  109  A    between atoms: _270  and  _272
REMARK  110  A    between atoms: _272  and  _273
REMARK  111  A    between atoms: _272  and  _275
REMARK  112  A    between atoms: _275  and  _276
REMARK  113  A    between atoms: _276  and  _277
REMARK  114  A    between atoms: _277  and  _278
REMARK  115  A    between atoms: _278  and  _279
REMARK  116  A    between atoms: _283  and  _285
REMARK  117  A    between atoms: _285  and  _286
REMARK  118  A    between atoms: _289  and  _291
REMARK  119  A    between atoms: _291  and  _292
REMARK  120  A    between atoms: _294  and  _296
REMARK  121  A    between atoms: _296  and  _297
REMARK  122  A    between atoms: _296  and  _299
REMARK  123  A    between atoms: _299  and  _300
REMARK  124  A    between atoms: _305  and  _307
REMARK  125  A    between atoms: _307  and  _308
REMARK  126  A    between atoms: _307  and  _310
REMARK  127  A    between atoms: _310  and  _311
REMARK  128  A    between atoms: _311  and  _312
REMARK  129  A    between atoms: _315  and  _317
REMARK  130  A    between atoms: _317  and  _318
REMARK  131  A    between atoms: _317  and  _320
REMARK  132  A    between atoms: _320  and  _321
REMARK  133  A    between atoms: _323  and  _325
REMARK  134  A    between atoms: _325  and  _326
REMARK  135  A    between atoms: _325  and  _328
REMARK  136  A    between atoms: _328  and  _329
REMARK  137  A    between atoms: _335  and  _337
REMARK  138  A    between atoms: _337  and  _338
REMARK  139  A    between atoms: _337  and  _340
REMARK  140  A    between atoms: _343  and  _345
REMARK  141  A    between atoms: _345  and  _346
REMARK  142  A    between atoms: _345  and  _348
REMARK  143  A    between atoms: _348  and  _349
REMARK  144  A    between atoms: _352  and  _354
REMARK  145  A    between atoms: _354  and  _355
REMARK  146  A    between atoms: _354  and  _357
REMARK  147  A    between atoms: _357  and  _358
REMARK  148  A    between atoms: _361  and  _363
REMARK  149  A    between atoms: _363  and  _364
REMARK  150  A    between atoms: _363  and  _366
REMARK  151  A    between atoms: _366  and  _367
REMARK  152  A    between atoms: _370  and  _372
REMARK  153  A    between atoms: _372  and  _373
REMARK  154  A    between atoms: _372  and  _375
REMARK  155  A    between atoms: _375  and  _376
REMARK  156  A    between atoms: _379  and  _381
REMARK  157  A    between atoms: _381  and  _382
REMARK  158  A    between atoms: _381  and  _384
REMARK  159  A    between atoms: _384  and  _385
REMARK  160  A    between atoms: _390  and  _391
REMARK  161  A    between atoms: _393  and  _395
REMARK  162  A    between atoms: _395  and  _396
REMARK  163  A    between atoms: _395  and  _398
REMARK  164  A    between atoms: _398  and  _399
REMARK  165  A    between atoms: _404  and  _405
REMARK  166  A    between atoms: _407  and  _409
REMARK  167  A    between atoms: _409  and  _410
REMARK  168  A    between atoms: _409  and  _412
REMARK  169  A    between atoms: _412  and  _413
REMARK  170  A    between atoms: _416  and  _418
REMARK  171  A    between atoms: _418  and  _419
REMARK  172  A    between atoms: _418  and  _421
REMARK  173  A    between atoms: _421  and  _422
REMARK  174  A    between atoms: _422  and  _423
REMARK  175  A    between atoms: _428  and  _430
REMARK  176  A    between atoms: _430  and  _431
REMARK  177  A    between atoms: _430  and  _433
REMARK  178  A    between atoms: _436  and  _438
REMARK  179  A    between atoms: _438  and  _439
REMARK  180  A    between atoms: _438  and  _441
REMARK  181  A    between atoms: _441  and  _442
REMARK  182  A    between atoms: _445  and  _447
REMARK  183  A    between atoms: _447  and  _448
REMARK  184  A    between atoms: _447  and  _450
REMARK  185  A    between atoms: _450  and  _451
REMARK  186  A    between atoms: _453  and  _455
REMARK  187  A    between atoms: _455  and  _456
REMARK  188  A    between atoms: _458  and  _460
REMARK  189  A    between atoms: _460  and  _461
REMARK  190  A    between atoms: _460  and  _463
REMARK  191  A    between atoms: _463  and  _464
REMARK  192  A    between atoms: _464  and  _790
REMARK  193  A    between atoms: _465  and  _467
REMARK  194  A    between atoms: _467  and  _468
REMARK  195  A    between atoms: _467  and  _470
REMARK  196  A    between atoms: _470  and  _471
REMARK  197  A    between atoms: _476  and  _477
REMARK  198  A    between atoms: _479  and  _481
REMARK  199  A    between atoms: _481  and  _482
REMARK  200  A    between atoms: _481  and  _484
REMARK  201  A    between atoms: _484  and  _485
REMARK  202  A    between atoms: _485  and  _486
REMARK  203  A    between atoms: _491  and  _493
REMARK  204  A    between atoms: _493  and  _494
REMARK  205  A    between atoms: _493  and  _496
REMARK  206  A    between atoms: _496  and  _497
REMARK  207  A    between atoms: _497  and  _498
REMARK  208  A    between atoms: _503  and  _505
REMARK  209  A    between atoms: _505  and  _506
REMARK  210  A    between atoms: _505  and  _508
REMARK  211  A    between atoms: _508  and  _509
REMARK  212  A    between atoms: _514  and  _515
REMARK  213  A    between atoms: _517  and  _519
REMARK  214  A    between atoms: _519  and  _520
REMARK  215  A    between atoms: _523  and  _525
REMARK  216  A    between atoms: _525  and  _526
REMARK  217  A    between atoms: _525  and  _528
REMARK  218  A    between atoms: _528  and  _529
REMARK  219  A    between atoms: _534  and  _535
REMARK  220  A    between atoms: _537  and  _539
REMARK  221  A    between atoms: _539  and  _540
REMARK  222  A    between atoms: _539  and  _542
REMARK  223  A    between atoms: _542  and  _543
REMARK  224  A    between atoms: _548  and  _549
REMARK  225  A    between atoms: _551  and  _553
REMARK  226  A    between atoms: _553  and  _554
REMARK  227  A    between atoms: _553  and  _556
REMARK  228  A    between atoms: _556  and  _557
REMARK  229  A    between atoms: _560  and  _562
REMARK  230  A    between atoms: _562  and  _563
REMARK  231  A    between atoms: _562  and  _565
REMARK  232  A    between atoms: _565  and  _566
REMARK  233  A    between atoms: _576  and  _578
REMARK  234  A    between atoms: _578  and  _579
REMARK  235  A    between atoms: _582  and  _584
REMARK  236  A    between atoms: _584  and  _585
REMARK  237  A    between atoms: _588  and  _590
REMARK  238  A    between atoms: _590  and  _591
REMARK  239  A    between atoms: _590  and  _593
REMARK  240  A    between atoms: _593  and  _594
REMARK  241  A    between atoms: _597  and  _599
REMARK  242  A    between atoms: _599  and  _600
REMARK  243  A    between atoms: _599  and  _602
REMARK  244  A    between atoms: _602  and  _603
REMARK  245  A    between atoms: _606  and  _608
REMARK  246  A    between atoms: _608  and  _609
REMARK  247  A    between atoms: _608  and  _611
REMARK  248  A    between atoms: _611  and  _612
REMARK  249  A    between atoms: _615  and  _617
REMARK  250  A    between atoms: _617  and  _618
REMARK  251  A    between atoms: _617  and  _620
REMARK  252  A    between atoms: _620  and  _621
REMARK  253  A    between atoms: _621  and  _622
REMARK  254  A    between atoms: _622  and  _623
REMARK  255  A    between atoms: _623  and  _624
REMARK  256  A    between atoms: _628  and  _630
REMARK  257  A    between atoms: _630  and  _631
REMARK  258  A    between atoms: _630  and  _633
REMARK  259  A    between atoms: _633  and  _634
REMARK  260  A    between atoms: _639  and  _641
REMARK  261  A    between atoms: _641  and  _642
REMARK  262  A    between atoms: _641  and  _644
REMARK  263  A    between atoms: _644  and  _645
REMARK  264  A    between atoms: _645  and  _646
REMARK  265  A    between atoms: _646  and  _647
REMARK  266  A    between atoms: _647  and  _648
REMARK  267  A    between atoms: _652  and  _654
REMARK  268  A    between atoms: _654  and  _655
REMARK  269  A    between atoms: _654  and  _657
REMARK  270  A    between atoms: _657  and  _658
REMARK  271  A    between atoms: _668  and  _670
REMARK  272  A    between atoms: _670  and  _671
REMARK  273  A    between atoms: _674  and  _676
REMARK  274  A    between atoms: _676  and  _677
REMARK  275  A    between atoms: _679  and  _681
REMARK  276  A    between atoms: _681  and  _682
REMARK  277  A    between atoms: _685  and  _687
REMARK  278  A    between atoms: _687  and  _688
REMARK  279  A    between atoms: _691  and  _693
REMARK  280  A    between atoms: _693  and  _694
REMARK  281  A    between atoms: _693  and  _696
REMARK  282  A    between atoms: _696  and  _697
REMARK  283  A    between atoms: _697  and  _698
REMARK  284  A    between atoms: _701  and  _703
REMARK  285  A    between atoms: _703  and  _704
REMARK  286  A    between atoms: _703  and  _706
REMARK  287  A    between atoms: _706  and  _707
REMARK  288  A    between atoms: _712  and  _713
REMARK  289  A    between atoms: _715  and  _717
REMARK  290  A    between atoms: _717  and  _718
REMARK  291  A    between atoms: _717  and  _720
REMARK  292  A    between atoms: _720  and  _721
REMARK  293  A    between atoms: _726  and  _727
REMARK  294  A    between atoms: _729  and  _731
REMARK  295  A    between atoms: _731  and  _732
REMARK  296  A    between atoms: _731  and  _734
REMARK  297  A    between atoms: _734  and  _735
REMARK  298  A    between atoms: _735  and  _736
REMARK  299  A    between atoms: _736  and  _737
REMARK  300  A    between atoms: _746  and  _748
REMARK  301  A    between atoms: _748  and  _749
REMARK  302  A    between atoms: _752  and  _754
REMARK  303  A    between atoms: _754  and  _755
REMARK  304  A    between atoms: _754  and  _757
REMARK  305  A    between atoms: _757  and  _758
REMARK  306  A    between atoms: _763  and  _764
REMARK  307  A    between atoms: _766  and  _768
REMARK  308  A    between atoms: _768  and  _769
REMARK  309  A    between atoms: _768  and  _771
REMARK  310  A    between atoms: _771  and  _772
REMARK  311  A    between atoms: _775  and  _777
REMARK  312  A    between atoms: _777  and  _778
REMARK  313  A    between atoms: _777  and  _780
REMARK  314  A    between atoms: _780  and  _781
REMARK  315  A    between atoms: _784  and  _786
REMARK  316  A    between atoms: _786  and  _787
REMARK  317  A    between atoms: _786  and  _789
REMARK  318  A    between atoms: _789  and  _790
REMARK  319  A    between atoms: _791  and  _793
REMARK  320  A    between atoms: _793  and  _794
REMARK  321  A    between atoms: _793  and  _796
REMARK  322  A    between atoms: _799  and  _801
REMARK  323  A    between atoms: _801  and  _802
REMARK  324  A    between atoms: _801  and  _804
REMARK  325  A    between atoms: _804  and  _805
REMARK  326  A    between atoms: _805  and  _806
REMARK  327  A    between atoms: _809  and  _811
REMARK  328  A    between atoms: _811  and  _812
REMARK  329  A    between atoms: _811  and  _814
REMARK  330  A    between atoms: _814  and  _815
REMARK  331  A    between atoms: _825  and  _827
REMARK  332  A    between atoms: _827  and  _828
REMARK  333  A    between atoms: _827  and  _830
REMARK  334  A    between atoms: _830  and  _831
REMARK  335  A    between atoms: _834  and  _836
REMARK  336  A    between atoms: _836  and  _837
REMARK  337  A    between atoms: _836  and  _839
REMARK  338  A    between atoms: _839  and  _840
REMARK  339  A    between atoms: _840  and  _841
REMARK  340  A    between atoms: _841  and  _842
REMARK  341  A    between atoms: _851  and  _853
REMARK  342  A    between atoms: _853  and  _854
REMARK  343  A    between atoms: _853  and  _856
REMARK  344  A    between atoms: _856  and  _857
REMARK  345  A    between atoms: _862  and  _863
REMARK                            x       y       z     vdW  Elec       q    Type
REMARK                         _______ _______ _______ _____ _____    ______ ____
ROOT
ATOM      1  CA  PHE A   1      47.287  48.067   9.616  0.00  0.00    +0.149 C 
ENDROOT
BRANCH   1   2
ATOM      2  C   PHE A   1      46.111  49.055   9.651  0.00  0.00    +0.239 C 
ATOM      3  O   PHE A   1      45.885  49.690  10.673  0.00  0.00    -0.274 OA
ATOM      4  N   VAL A   2      45.355  49.170   8.565  0.00  0.00    -0.298 N 
ATOM      5  H   VAL A   2      45.608  48.641   7.706  0.00  0.00    +0.150 HD
BRANCH   4   6
ATOM      6  CA  VAL A   2      44.174  50.029   8.561  0.00  0.00    +0.137 C 
BRANCH   6   7
ATOM      7  CB  VAL A   2      44.489  51.491   8.084  0.00  0.00    +0.026 C 
ATOM      8  CG2 VAL A   2      45.372  52.170   9.093  0.00  0.00    +0.002 C 
ATOM      9  CG1 VAL A   2      45.135  51.479   6.697  0.00  0.00    +0.002 C 
ENDBRANCH   6   7
BRANCH   6  10
ATOM     10  C   VAL A   2      43.113  49.460   7.650  0.00  0.00    +0.227 C 
ATOM     11  O   VAL A   2      43.428  48.754   6.696  0.00  0.00    -0.286 OA
ENDBRANCH   6  10
ENDBRANCH   4   6
ENDBRANCH   1   2
BRANCH   1  12
ATOM     12  N   PHE A   1      47.238  47.049   8.568  0.00  0.00    -0.238 NA
ATOM     13  H   PHE A   1      47.029  47.309   7.583  0.00  0.00    +0.142 HD
ENDBRANCH   1  12
BRANCH   1  14
ATOM     14  CB  PHE A   1      48.645  48.789   9.580  0.00  0.00    +0.053 C 
BRANCH  14  15
ATOM     15  CG  PHE A   1      48.758  49.844   8.511  0.00  0.00    -0.020 A 
ATOM     16  CD2 PHE A   1      48.792  51.201   8.866  0.00  0.00    -0.004 A 
ATOM     17  CE2 PHE A   1      48.863  52.191   7.877  0.00  0.00    -0.000 A 
ATOM     18  CZ  PHE A   1      48.905  51.827   6.520  0.00  0.00    -0.000 A 
ATOM     19  CE1 PHE A   1      48.877  50.466   6.164  0.00  0.00    -0.000 A 
ATOM     20  CD1 PHE A   1      48.802  49.498   7.165  0.00  0.00    -0.004 A 
ENDBRANCH  14  15
ENDBRANCH   1  14
TORSDOF 7
REMARK  Name = ../refined-set-2016/1fzj/1fzj_pocket.pdb
REMARK  345 active torsions:
REMARK  status: ('A' for Active; 'I' for Inactive)
REMARK    1  A    between atoms: _1  and  _3
REMARK    2  A    between atoms: _3  and  _4
REMARK    3  A    between atoms: _3  and  _6
REMARK    4  A    between atoms: _6  and  _7
REMARK    5  A    between atoms: _10  and  _12
REMARK    6  A    between atoms: _12  and  _13
REMARK    7  A    between atoms: _12  and  _15
REMARK    8  A    between atoms: _15  and  _16
REMARK    9  A    between atoms: _16  and  _17
REMARK   10  A    between atoms: _17  and  _18
REMARK   11  A    between atoms: _27  and  _29
REMARK   12  A    between atoms: _29  and  _30
REMARK   13  A    between atoms: _29  and  _32
REMARK   14  A    between atoms: _32  and  _33
REMARK   15  A    between atoms: _38  and  _39
REMARK   16  A    between atoms: _41  and  _43
REMARK   17  A    between atoms: _43  and  _44
REMARK   18  A    between atoms: _43  and  _46
REMARK   19  A    between atoms: _46  and  _47
REMARK   20  A    between atoms: _53  and  _55
REMARK   21  A    between atoms: _55  and  _56
REMARK   22  A    between atoms: _55  and  _58
REMARK   23  A    between atoms: _61  and  _63
REMARK   24  A    between atoms: _63  and  _64
REMARK   25  A    between atoms: _63  and  _66
REMARK   26  A    between atoms: _66  and  _67
REMARK   27  A    between atoms: _70  and  _72
REMARK   28  A    between atoms: _72  and  _73
REMARK   29  A    between atoms: _72  and  _75
REMARK   30  A    between atoms: _75  and  _76
REMARK   31  A    between atoms: _81  and  _82
REMARK   32  A    between atoms: _84  and  _86
REMARK   33  A    between atoms: _86  and  _87
REMARK   34  A    between atoms: _86  and  _89
REMARK   35  A    between atoms: _89  and  _90
REMARK   36  A    between atoms: _90  and  _91
REMARK   37  A    between atoms: _93  and  _95
REMARK   38  A    between atoms: _95  and  _96
REMARK   39  A    between atoms: _95  and  _98
REMARK   40  A    between atoms: _98  and  _99
REMARK   41  A    between atoms: _99  and  _100
REMARK   42  A    between atoms: _103  and  _105
REMARK   43  A    between atoms: _105  and  _106
REMARK   44  A    between atoms: _105  and  _108
REMARK   45  A    between atoms: _111  and  _113
REMARK   46  A    between atoms: _113  and  _114
REMARK   47  A    between atoms: _113  and  _116
REMARK   48  A    between atoms: _119  and  _121
REMARK   49  A    between atoms: _121  and  _122
REMARK   50  A    between atoms: _121  and  _124
REMARK   51  A    between atoms: _124  and  _125
REMARK   52  A    between atoms: _131  and  _133
REMARK   53  A    between atoms: _133  and  _134
REMARK   54  A    between atoms: _133  and  _136
REMARK   55  A    between atoms: _139  and  _141
REMARK   56  A    between atoms: _141  and  _142
REMARK   57  A    between atoms: _141  and  _144
REMARK   58  A    between atoms: _144  and  _145
REMARK   59  A    between atoms: _150  and  _151
REMARK   60  A    between atoms: _153  and  _155
REMARK   61  A    between atoms: _155  and  _156
REMARK   62  A    between atoms: _155  and  _158
REMARK   63  A    between atoms: _158  and  _159
REMARK   64  A    between atoms: _159  and  _160
REMARK   65  A    between atoms: _162  and  _164
REMARK   66  A    between atoms: _164  and  _165
REMARK   67  A    between atoms: _164  and  _167
REMARK   68  A    between atoms: _167  and  _168
REMARK   69  A    between atoms: _168  and  _169
REMARK   70  A    between atoms: _172  and  _174
REMARK   71  A    between atoms: _174  and  _175
REMARK   72  A    between atoms: _174  and  _177
REMARK   73  A    between atoms: _177  and  _178
REMARK   74  A    between atoms: _178  and  _179
REMARK   75  A    between atoms: _182  and  _184
REMARK   76  A    between atoms: _184  and  _185
REMARK   77  A    between atoms: _184  and  _187
REMARK   78  A    between atoms: _187  and  _188
REMARK   79  A    between atoms: _193  and  _194
REMARK   80  A    between atoms: _196  and  _198
REMARK   81  A    between atoms: _198  and  _199
REMARK   82  A    between atoms: _198  and  _201
REMARK   83  A    between atoms: _201  and  _202
REMARK   84  A    between atoms: _212  and  _214
REMARK   85  A    between atoms: _214  and  _215
REMARK   86  A    between atoms: _214  and  _217
REMARK   87  A    between atoms: _217  and  _218
REMARK   88  A    between atoms: _218  and  _219
REMARK   89  A    between atoms: _222  and  _224
REMARK   90  A    between atoms: _224  and  _225
REMARK   91  A    between atoms: _224  and  _227
REMARK   92  A    between atoms: _227  and  _228
REMARK   93  A    between atoms: _228  and  _229
REMARK   94  A    between atoms: _229  and  _230
REMARK   95  A    between atoms: _239  and  _241
REMARK   96  A    between atoms: _241  and  _242
REMARK   97  A    between atoms: _241  and  _244
REMARK   98  A    between atoms: _244  and  _245
REMARK   99  A    between atoms: _245  and  _246
REMARK  100  A    between atoms: _249  and  _251
REMARK  101  A    between atoms: _251  and  _252
REMARK  102  A    between atoms: _251  and  _254
REMARK  103  A    between atoms: _254  and  _255
REMARK  104  A    between atoms: _258  and  _260
REMARK  105  A    between atoms: _260  and  _261
REMARK  106  A    between atoms: _260  and  _263
REMARK  107  A    between atoms: _263  and  _264
REMARK  108  A    between atoms: _264  and  _265
REMARK  109  A    between atoms: _270  and  _272
REMARK  110  A    between atoms: _272  and  _273
REMARK  111  A    between atoms: _272  and  _275
REMARK  112  A    between atoms: _275  and  _276
REMARK  113  A    between atoms: _276  and  _277
REMARK  114  A    between atoms: _277  and  _278
REMARK  115  A    between atoms: _278  and  _279
REMARK  116  A    between atoms: _283  and  _285
REMARK  117  A    between atoms: _285  and  _286
REMARK  118  A    between atoms: _289  and  _291
REMARK  119  A    between atoms: _291  and  _292
REMARK  120  A    between atoms: _294  and  _296
REMARK  121  A    between atoms: _296  and  _297
REMARK  122  A    between atoms: _296  and  _299
REMARK  123  A    between atoms: _299  and  _300
REMARK  124  A    between atoms: _305  and  _307
REMARK  125  A    between atoms: _307  and  _308
REMARK  126  A    between atoms: _307  and  _310
REMARK  127  A    between atoms: _310  and  _311
REMARK  128  A    between atoms: _311  and  _312
REMARK  129  A    between atoms: _315  and  _317
REMARK  130  A    between atoms: _317  and  _318
REMARK  131  A    between atoms: _317  and  _320
REMARK  132  A    between atoms: _320  and  _321
REMARK  133  A    between atoms: _323  and  _325
REMARK  134  A    between atoms: _325  and  _326
REMARK  135  A    between atoms: _325  and  _328
REMARK  136  A    between atoms: _328  and  _329
REMARK  137  A    between atoms: _335  and  _337
REMARK  138  A    between atoms: _337  and  _338
REMARK  139  A    between atoms: _337  and  _340
REMARK  140  A    between atoms: _343  and  _345
REMARK  141  A    between atoms: _345  and  _346
REMARK  142  A    between atoms: _345  and  _348
REMARK  143  A    between atoms: _348  and  _349
REMARK  144  A    between atoms: _352  and  _354
REMARK  145  A    between atoms: _354  and  _355
REMARK  146  A    between atoms: _354  and  _357
REMARK  147  A    between atoms: _357  and  _358
REMARK  148  A    between atoms: _361  and  _363
REMARK  149  A    between atoms: _363  and  _364
REMARK  150  A    between atoms: _363  and  _366
REMARK  151  A    between atoms: _366  and  _367
REMARK  152  A    between atoms: _370  and  _372
REMARK  153  A    between atoms: _372  and  _373
REMARK  154  A    between atoms: _372  and  _375
REMARK  155  A    between atoms: _375  and  _376
REMARK  156  A    between atoms: _379  and  _381
REMARK  157  A    between atoms: _381  and  _382
REMARK  158  A    between atoms: _381  and  _384
REMARK  159  A    between atoms: _384  and  _385
REMARK  160  A    between atoms: _390  and  _391
REMARK  161  A    between atoms: _393  and  _395
REMARK  162  A    between atoms: _395  and  _396
REMARK  163  A    between atoms: _395  and  _398
REMARK  164  A    between atoms: _398  and  _399
REMARK  165  A    between atoms: _404  and  _405
REMARK  166  A    between atoms: _407  and  _409
REMARK  167  A    between atoms: _409  and  _410
REMARK  168  A    between atoms: _409  and  _412
REMARK  169  A    between atoms: _412  and  _413
REMARK  170  A    between atoms: _416  and  _418
REMARK  171  A    between atoms: _418  and  _419
REMARK  172  A    between atoms: _418  and  _421
REMARK  173  A    between atoms: _421  and  _422
REMARK  174  A    between atoms: _422  and  _423
REMARK  175  A    between atoms: _428  and  _430
REMARK  176  A    between atoms: _430  and  _431
REMARK  177  A    between atoms: _430  and  _433
REMARK  178  A    between atoms: _436  and  _438
REMARK  179  A    between atoms: _438  and  _439
REMARK  180  A    between atoms: _438  and  _441
REMARK  181  A    between atoms: _441  and  _442
REMARK  182  A    between atoms: _445  and  _447
REMARK  183  A    between atoms: _447  and  _448
REMARK  184  A    between atoms: _447  and  _450
REMARK  185  A    between atoms: _450  and  _451
REMARK  186  A    between atoms: _453  and  _455
REMARK  187  A    between atoms: _455  and  _456
REMARK  188  A    between atoms: _458  and  _460
REMARK  189  A    between atoms: _460  and  _461
REMARK  190  A    between atoms: _460  and  _463
REMARK  191  A    between atoms: _463  and  _464
REMARK  192  A    between atoms: _464  and  _790
REMARK  193  A    between atoms: _465  and  _467
REMARK  194  A    between atoms: _467  and  _468
REMARK  195  A    between atoms: _467  and  _470
REMARK  196  A    between atoms: _470  and  _471
REMARK  197  A    between atoms: _476  and  _477
REMARK  198  A    between atoms: _479  and  _481
REMARK  199  A    between atoms: _481  and  _482
REMARK  200  A    between atoms: _481  and  _484
REMARK  201  A    between atoms: _484  and  _485
REMARK  202  A    between atoms: _485  and  _486
REMARK  203  A    between atoms: _491  and  _493
REMARK  204  A    between atoms: _493  and  _494
REMARK  205  A    between atoms: _493  and  _496
REMARK  206  A    between atoms: _496  and  _497
REMARK  207  A    between atoms: _497  and  _498
REMARK  208  A    between atoms: _503  and  _505
REMARK  209  A    between atoms: _505  and  _506
REMARK  210  A    between atoms: _505  and  _508
REMARK  211  A    between atoms: _508  and  _509
REMARK  212  A    between atoms: _514  and  _515
REMARK  213  A    between atoms: _517  and  _519
REMARK  214  A    between atoms: _519  and  _520
REMARK  215  A    between atoms: _523  and  _525
REMARK  216  A    between atoms: _525  and  _526
REMARK  217  A    between atoms: _525  and  _528
REMARK  218  A    between atoms: _528  and  _529
REMARK  219  A    between atoms: _534  and  _535
REMARK  220  A    between atoms: _537  and  _539
REMARK  221  A    between atoms: _539  and  _540
REMARK  222  A    between atoms: _539  and  _542
REMARK  223  A    between atoms: _542  and  _543
REMARK  224  A    between atoms: _548  and  _549
REMARK  225  A    between atoms: _551  and  _553
REMARK  226  A    between atoms: _553  and  _554
REMARK  227  A    between atoms: _553  and  _556
REMARK  228  A    between atoms: _556  and  _557
REMARK  229  A    between atoms: _560  and  _562
REMARK  230  A    between atoms: _562  and  _563
REMARK  231  A    between atoms: _562  and  _565
REMARK  232  A    between atoms: _565  and  _566
REMARK  233  A    between atoms: _576  and  _578
REMARK  234  A    between atoms: _578  and  _579
REMARK  235  A    between atoms: _582  and  _584
REMARK  236  A    between atoms: _584  and  _585
REMARK  237  A    between atoms: _588  and  _590
REMARK  238  A    between atoms: _590  and  _591
REMARK  239  A    between atoms: _590  and  _593
REMARK  240  A    between atoms: _593  and  _594
REMARK  241  A    between atoms: _597  and  _599
REMARK  242  A    between atoms: _599  and  _600
REMARK  243  A    between atoms: _599  and  _602
REMARK  244  A    between atoms: _602  and  _603
REMARK  245  A    between atoms: _606  and  _608
REMARK  246  A    between atoms: _608  and  _609
REMARK  247  A    between atoms: _608  and  _611
REMARK  248  A    between atoms: _611  and  _612
REMARK  249  A    between atoms: _615  and  _617
REMARK  250  A    between atoms: _617  and  _618
REMARK  251  A    between atoms: _617  and  _620
REMARK  252  A    between atoms: _620  and  _621
REMARK  253  A    between atoms: _621  and  _622
REMARK  254  A    between atoms: _622  and  _623
REMARK  255  A    between atoms: _623  and  _624
REMARK  256  A    between atoms: _628  and  _630
REMARK  257  A    between atoms: _630  and  _631
REMARK  258  A    between atoms: _630  and  _633
REMARK  259  A    between atoms: _633  and  _634
REMARK  260  A    between atoms: _639  and  _641
REMARK  261  A    between atoms: _641  and  _642
REMARK  262  A    between atoms: _641  and  _644
REMARK  263  A    between atoms: _644  and  _645
REMARK  264  A    between atoms: _645  and  _646
REMARK  265  A    between atoms: _646  and  _647
REMARK  266  A    between atoms: _647  and  _648
REMARK  267  A    between atoms: _652  and  _654
REMARK  268  A    between atoms: _654  and  _655
REMARK  269  A    between atoms: _654  and  _657
REMARK  270  A    between atoms: _657  and  _658
REMARK  271  A    between atoms: _668  and  _670
REMARK  272  A    between atoms: _670  and  _671
REMARK  273  A    between atoms: _674  and  _676
REMARK  274  A    between atoms: _676  and  _677
REMARK  275  A    between atoms: _679  and  _681
REMARK  276  A    between atoms: _681  and  _682
REMARK  277  A    between atoms: _685  and  _687
REMARK  278  A    between atoms: _687  and  _688
REMARK  279  A    between atoms: _691  and  _693
REMARK  280  A    between atoms: _693  and  _694
REMARK  281  A    between atoms: _693  and  _696
REMARK  282  A    between atoms: _696  and  _697
REMARK  283  A    between atoms: _697  and  _698
REMARK  284  A    between atoms: _701  and  _703
REMARK  285  A    between atoms: _703  and  _704
REMARK  286  A    between atoms: _703  and  _706
REMARK  287  A    between atoms: _706  and  _707
REMARK  288  A    between atoms: _712  and  _713
REMARK  289  A    between atoms: _715  and  _717
REMARK  290  A    between atoms: _717  and  _718
REMARK  291  A    between atoms: _717  and  _720
REMARK  292  A    between atoms: _720  and  _721
REMARK  293  A    between atoms: _726  and  _727
REMARK  294  A    between atoms: _729  and  _731
REMARK  295  A    between atoms: _731  and  _732
REMARK  296  A    between atoms: _731  and  _734
REMARK  297  A    between atoms: _734  and  _735
REMARK  298  A    between atoms: _735  and  _736
REMARK  299  A    between atoms: _736  and  _737
REMARK  300  A    between atoms: _746  and  _748
REMARK  301  A    between atoms: _748  and  _749
REMARK  302  A    between atoms: _752  and  _754
REMARK  303  A    between atoms: _754  and  _755
REMARK  304  A    between atoms: _754  and  _757
REMARK  305  A    between atoms: _757  and  _758
REMARK  306  A    between atoms: _763  and  _764
REMARK  307  A    between atoms: _766  and  _768
REMARK  308  A    between atoms: _768  and  _769
REMARK  309  A    between atoms: _768  and  _771
REMARK  310  A    between atoms: _771  and  _772
REMARK  311  A    between atoms: _775  and  _777
REMARK  312  A    between atoms: _777  and  _778
REMARK  313  A    between atoms: _777  and  _780
REMARK  314  A    between atoms: _780  and  _781
REMARK  315  A    between atoms: _784  and  _786
REMARK  316  A    between atoms: _786  and  _787
REMARK  317  A    between atoms: _786  and  _789
REMARK  318  A    between atoms: _789  and  _790
REMARK  319  A    between atoms: _791  and  _793
REMARK  320  A    between atoms: _793  and  _794
REMARK  321  A    between atoms: _793  and  _796
REMARK  322  A    between atoms: _799  and  _801
REMARK  323  A    between atoms: _801  and  _802
REMARK  324  A    between atoms: _801  and  _804
REMARK  325  A    between atoms: _804  and  _805
REMARK  326  A    between atoms: _805  and  _806
REMARK  327  A    between atoms: _809  and  _811
REMARK  328  A    between atoms: _811  and  _812
REMARK  329  A    between atoms: _811  and  _814
REMARK  330  A    between atoms: _814  and  _815
REMARK  331  A    between atoms: _825  and  _827
REMARK  332  A    between atoms: _827  and  _828
REMARK  333  A    between atoms: _827  and  _830
REMARK  334  A    between atoms: _830  and  _831
REMARK  335  A    between atoms: _834  and  _836
REMARK  336  A    between atoms: _836  and  _837
REMARK  337  A    between atoms: _836  and  _839
REMARK  338  A    between atoms: _839  and  _840
REMARK  339  A    between atoms: _840  and  _841
REMARK  340  A    between atoms: _841  and  _842
REMARK  341  A    between atoms: _851  and  _853
REMARK  342  A    between atoms: _853  and  _854
REMARK  343  A    between atoms: _853  and  _856
REMARK  344  A    between atoms: _856  and  _857
REMARK  345  A    between atoms: _862  and  _863
REMARK                            x       y       z     vdW  Elec       q    Type
REMARK                         _______ _______ _______ _____ _____    ______ ____
ROOT
ATOM      1  CG  TYR A   1      40.575  54.805   7.341  0.00  0.00    -0.020 A 
ATOM      2  CD2 TYR A   1      41.869  54.290   7.393  0.00  0.00    -0.001 A 
ATOM      3  CE2 TYR A   1      42.529  53.886   6.217  0.00  0.00    +0.036 A 
ATOM      4  CZ  TYR A   1      41.883  54.001   5.003  0.00  0.00    +0.134 A 
ATOM      5  CE1 TYR A   1      40.608  54.515   4.937  0.00  0.00    +0.036 A 
ATOM      6  CD1 TYR A   1      39.962  54.911   6.098  0.00  0.00    -0.001 A 
ENDROOT
BRANCH   4   7
ATOM      7  OH  TYR A   1      42.475  53.569   3.842  0.00  0.00    -0.506 OA
ATOM      8  HH  TYR A   1      42.538  54.324   3.205  0.00  0.00    +0.292 HD
ENDBRANCH   4   7
BRANCH   1   9
ATOM      9  CB  TYR A   1      39.838  55.205   8.593  0.00  0.00    +0.051 C 
BRANCH   9  10
ATOM     10  CA  TYR A   1      38.800  54.168   9.037  0.00  0.00    +0.137 C 
BRANCH  10  11
ATOM     11  N   TYR A   1      37.495  54.769   9.244  0.00  0.00    -0.239 NA
ATOM     12  H   TYR A   1      37.401  55.805   9.231  0.00  0.00    +0.142 HD
ENDBRANCH  10  11
BRANCH  10  13
ATOM     13  C   TYR A   1      39.143  53.656  10.419  0.00  0.00    +0.224 C 
ATOM     14  O   TYR A   1      38.902  54.347  11.422  0.00  0.00    -0.287 OA
ENDBRANCH  10  13
ENDBRANCH   9  10
ENDBRANCH   1   9
TORSDOF 5
REMARK  Name = ../refined-set-2016/1fzj/1fzj_pocket.pdb
REMARK  345 active torsions:
REMARK  status: ('A' for Active; 'I' for Inactive)
REMARK    1  A    between atoms: _1  and  _3
REMARK    2  A    between atoms: _3  and  _4
REMARK    3  A    between atoms: _3  and  _6
REMARK    4  A    between atoms: _6  and  _7
REMARK    5  A    between atoms: _10  and  _12
REMARK    6  A    between atoms: _12  and  _13
REMARK    7  A    between atoms: _12  and  _15
REMARK    8  A    between atoms: _15  and  _16
REMARK    9  A    between atoms: _16  and  _17
REMARK   10  A    between atoms: _17  and  _18
REMARK   11  A    between atoms: _27  and  _29
REMARK   12  A    between atoms: _29  and  _30
REMARK   13  A    between atoms: _29  and  _32
REMARK   14  A    between atoms: _32  and  _33
REMARK   15  A    between atoms: _38  and  _39
REMARK   16  A    between atoms: _41  and  _43
REMARK   17  A    between atoms: _43  and  _44
REMARK   18  A    between atoms: _43  and  _46
REMARK   19  A    between atoms: _46  and  _47
REMARK   20  A    between atoms: _53  and  _55
REMARK   21  A    between atoms: _55  and  _56
REMARK   22  A    between atoms: _55  and  _58
REMARK   23  A    between atoms: _61  and  _63
REMARK   24  A    between atoms: _63  and  _64
REMARK   25  A    between atoms: _63  and  _66
REMARK   26  A    between atoms: _66  and  _67
REMARK   27  A    between atoms: _70  and  _72
REMARK   28  A    between atoms: _72  and  _73
REMARK   29  A    between atoms: _72  and  _75
REMARK   30  A    between atoms: _75  and  _76
REMARK   31  A    between atoms: _81  and  _82
REMARK   32  A    between atoms: _84  and  _86
REMARK   33  A    between atoms: _86  and  _87
REMARK   34  A    between atoms: _86  and  _89
REMARK   35  A    between atoms: _89  and  _90
REMARK   36  A    between atoms: _90  and  _91
REMARK   37  A    between atoms: _93  and  _95
REMARK   38  A    between atoms: _95  and  _96
REMARK   39  A    between atoms: _95  and  _98
REMARK   40  A    between atoms: _98  and  _99
REMARK   41  A    between atoms: _99  and  _100
REMARK   42  A    between atoms: _103  and  _105
REMARK   43  A    between atoms: _105  and  _106
REMARK   44  A    between atoms: _105  and  _108
REMARK   45  A    between atoms: _111  and  _113
REMARK   46  A    between atoms: _113  and  _114
REMARK   47  A    between atoms: _113  and  _116
REMARK   48  A    between atoms: _119  and  _121
REMARK   49  A    between atoms: _121  and  _122
REMARK   50  A    between atoms: _121  and  _124
REMARK   51  A    between atoms: _124  and  _125
REMARK   52  A    between atoms: _131  and  _133
REMARK   53  A    between atoms: _133  and  _134
REMARK   54  A    between atoms: _133  and  _136
REMARK   55  A    between atoms: _139  and  _141
REMARK   56  A    between atoms: _141  and  _142
REMARK   57  A    between atoms: _141  and  _144
REMARK   58  A    between atoms: _144  and  _145
REMARK   59  A    between atoms: _150  and  _151
REMARK   60  A    between atoms: _153  and  _155
REMARK   61  A    between atoms: _155  and  _156
REMARK   62  A    between atoms: _155  and  _158
REMARK   63  A    between atoms: _158  and  _159
REMARK   64  A    between atoms: _159  and  _160
REMARK   65  A    between atoms: _162  and  _164
REMARK   66  A    between atoms: _164  and  _165
REMARK   67  A    between atoms: _164  and  _167
REMARK   68  A    between atoms: _167  and  _168
REMARK   69  A    between atoms: _168  and  _169
REMARK   70  A    between atoms: _172  and  _174
REMARK   71  A    between atoms: _174  and  _175
REMARK   72  A    between atoms: _174  and  _177
REMARK   73  A    between atoms: _177  and  _178
REMARK   74  A    between atoms: _178  and  _179
REMARK   75  A    between atoms: _182  and  _184
REMARK   76  A    between atoms: _184  and  _185
REMARK   77  A    between atoms: _184  and  _187
REMARK   78  A    between atoms: _187  and  _188
REMARK   79  A    between atoms: _193  and  _194
REMARK   80  A    between atoms: _196  and  _198
REMARK   81  A    between atoms: _198  and  _199
REMARK   82  A    between atoms: _198  and  _201
REMARK   83  A    between atoms: _201  and  _202
REMARK   84  A    between atoms: _212  and  _214
REMARK   85  A    between atoms: _214  and  _215
REMARK   86  A    between atoms: _214  and  _217
REMARK   87  A    between atoms: _217  and  _218
REMARK   88  A    between atoms: _218  and  _219
REMARK   89  A    between atoms: _222  and  _224
REMARK   90  A    between atoms: _224  and  _225
REMARK   91  A    between atoms: _224  and  _227
REMARK   92  A    between atoms: _227  and  _228
REMARK   93  A    between atoms: _228  and  _229
REMARK   94  A    between atoms: _229  and  _230
REMARK   95  A    between atoms: _239  and  _241
REMARK   96  A    between atoms: _241  and  _242
REMARK   97  A    between atoms: _241  and  _244
REMARK   98  A    between atoms: _244  and  _245
REMARK   99  A    between atoms: _245  and  _246
REMARK  100  A    between atoms: _249  and  _251
REMARK  101  A    between atoms: _251  and  _252
REMARK  102  A    between atoms: _251  and  _254
REMARK  103  A    between atoms: _254  and  _255
REMARK  104  A    between atoms: _258  and  _260
REMARK  105  A    between atoms: _260  and  _261
REMARK  106  A    between atoms: _260  and  _263
REMARK  107  A    between atoms: _263  and  _264
REMARK  108  A    between atoms: _264  and  _265
REMARK  109  A    between atoms: _270  and  _272
REMARK  110  A    between atoms: _272  and  _273
REMARK  111  A    between atoms: _272  and  _275
REMARK  112  A    between atoms: _275  and  _276
REMARK  113  A    between atoms: _276  and  _277
REMARK  114  A    between atoms: _277  and  _278
REMARK  115  A    between atoms: _278  and  _279
REMARK  116  A    between atoms: _283  and  _285
REMARK  117  A    between atoms: _285  and  _286
REMARK  118  A    between atoms: _289  and  _291
REMARK  119  A    between atoms: _291  and  _292
REMARK  120  A    between atoms: _294  and  _296
REMARK  121  A    between atoms: _296  and  _297
REMARK  122  A    between atoms: _296  and  _299
REMARK  123  A    between atoms: _299  and  _300
REMARK  124  A    between atoms: _305  and  _307
REMARK  125  A    between atoms: _307  and  _308
REMARK  126  A    between atoms: _307  and  _310
REMARK  127  A    between atoms: _310  and  _311
REMARK  128  A    between atoms: _311  and  _312
REMARK  129  A    between atoms: _315  and  _317
REMARK  130  A    between atoms: _317  and  _318
REMARK  131  A    between atoms: _317  and  _320
REMARK  132  A    between atoms: _320  and  _321
REMARK  133  A    between atoms: _323  and  _325
REMARK  134  A    between atoms: _325  and  _326
REMARK  135  A    between atoms: _325  and  _328
REMARK  136  A    between atoms: _328  and  _329
REMARK  137  A    between atoms: _335  and  _337
REMARK  138  A    between atoms: _337  and  _338
REMARK  139  A    between atoms: _337  and  _340
REMARK  140  A    between atoms: _343  and  _345
REMARK  141  A    between atoms: _345  and  _346
REMARK  142  A    between atoms: _345  and  _348
REMARK  143  A    between atoms: _348  and  _349
REMARK  144  A    between atoms: _352  and  _354
REMARK  145  A    between atoms: _354  and  _355
REMARK  146  A    between atoms: _354  and  _357
REMARK  147  A    between atoms: _357  and  _358
REMARK  148  A    between atoms: _361  and  _363
REMARK  149  A    between atoms: _363  and  _364
REMARK  150  A    between atoms: _363  and  _366
REMARK  151  A    between atoms: _366  and  _367
REMARK  152  A    between atoms: _370  and  _372
REMARK  153  A    between atoms: _372  and  _373
REMARK  154  A    between atoms: _372  and  _375
REMARK  155  A    between atoms: _375  and  _376
REMARK  156  A    between atoms: _379  and  _381
REMARK  157  A    between atoms: _381  and  _382
REMARK  158  A    between atoms: _381  and  _384
REMARK  159  A    between atoms: _384  and  _385
REMARK  160  A    between atoms: _390  and  _391
REMARK  161  A    between atoms: _393  and  _395
REMARK  162  A    between atoms: _395  and  _396
REMARK  163  A    between atoms: _395  and  _398
REMARK  164  A    between atoms: _398  and  _399
REMARK  165  A    between atoms: _404  and  _405
REMARK  166  A    between atoms: _407  and  _409
REMARK  167  A    between atoms: _409  and  _410
REMARK  168  A    between atoms: _409  and  _412
REMARK  169  A    between atoms: _412  and  _413
REMARK  170  A    between atoms: _416  and  _418
REMARK  171  A    between atoms: _418  and  _419
REMARK  172  A    between atoms: _418  and  _421
REMARK  173  A    between atoms: _421  and  _422
REMARK  174  A    between atoms: _422  and  _423
REMARK  175  A    between atoms: _428  and  _430
REMARK  176  A    between atoms: _430  and  _431
REMARK  177  A    between atoms: _430  and  _433
REMARK  178  A    between atoms: _436  and  _438
REMARK  179  A    between atoms: _438  and  _439
REMARK  180  A    between atoms: _438  and  _441
REMARK  181  A    between atoms: _441  and  _442
REMARK  182  A    between atoms: _445  and  _447
REMARK  183  A    between atoms: _447  and  _448
REMARK  184  A    between atoms: _447  and  _450
REMARK  185  A    between atoms: _450  and  _451
REMARK  186  A    between atoms: _453  and  _455
REMARK  187  A    between atoms: _455  and  _456
REMARK  188  A    between atoms: _458  and  _460
REMARK  189  A    between atoms: _460  and  _461
REMARK  190  A    between atoms: _460  and  _463
REMARK  191  A    between atoms: _463  and  _464
REMARK  192  A    between atoms: _464  and  _790
REMARK  193  A    between atoms: _465  and  _467
REMARK  194  A    between atoms: _467  and  _468
REMARK  195  A    between atoms: _467  and  _470
REMARK  196  A    between atoms: _470  and  _471
REMARK  197  A    between atoms: _476  and  _477
REMARK  198  A    between atoms: _479  and  _481
REMARK  199  A    between atoms: _481  and  _482
REMARK  200  A    between atoms: _481  and  _484
REMARK  201  A    between atoms: _484  and  _485
REMARK  202  A    between atoms: _485  and  _486
REMARK  203  A    between atoms: _491  and  _493
REMARK  204  A    between atoms: _493  and  _494
REMARK  205  A    between atoms: _493  and  _496
REMARK  206  A    between atoms: _496  and  _497
REMARK  207  A    between atoms: _497  and  _498
REMARK  208  A    between atoms: _503  and  _505
REMARK  209  A    between atoms: _505  and  _506
REMARK  210  A    between atoms: _505  and  _508
REMARK  211  A    between atoms: _508  and  _509
REMARK  212  A    between atoms: _514  and  _515
REMARK  213  A    between atoms: _517  and  _519
REMARK  214  A    between atoms: _519  and  _520
REMARK  215  A    between atoms: _523  and  _525
REMARK  216  A    between atoms: _525  and  _526
REMARK  217  A    between atoms: _525  and  _528
REMARK  218  A    between atoms: _528  and  _529
REMARK  219  A    between atoms: _534  and  _535
REMARK  220  A    between atoms: _537  and  _539
REMARK  221  A    between atoms: _539  and  _540
REMARK  222  A    between atoms: _539  and  _542
REMARK  223  A    between atoms: _542  and  _543
REMARK  224  A    between atoms: _548  and  _549
REMARK  225  A    between atoms: _551  and  _553
REMARK  226  A    between atoms: _553  and  _554
REMARK  227  A    between atoms: _553  and  _556
REMARK  228  A    between atoms: _556  and  _557
REMARK  229  A    between atoms: _560  and  _562
REMARK  230  A    between atoms: _562  and  _563
REMARK  231  A    between atoms: _562  and  _565
REMARK  232  A    between atoms: _565  and  _566
REMARK  233  A    between atoms: _576  and  _578
REMARK  234  A    between atoms: _578  and  _579
REMARK  235  A    between atoms: _582  and  _584
REMARK  236  A    between atoms: _584  and  _585
REMARK  237  A    between atoms: _588  and  _590
REMARK  238  A    between atoms: _590  and  _591
REMARK  239  A    between atoms: _590  and  _593
REMARK  240  A    between atoms: _593  and  _594
REMARK  241  A    between atoms: _597  and  _599
REMARK  242  A    between atoms: _599  and  _600
REMARK  243  A    between atoms: _599  and  _602
REMARK  244  A    between atoms: _602  and  _603
REMARK  245  A    between atoms: _606  and  _608
REMARK  246  A    between atoms: _608  and  _609
REMARK  247  A    between atoms: _608  and  _611
REMARK  248  A    between atoms: _611  and  _612
REMARK  249  A    between atoms: _615  and  _617
REMARK  250  A    between atoms: _617  and  _618
REMARK  251  A    between atoms: _617  and  _620
REMARK  252  A    between atoms: _620  and  _621
REMARK  253  A    between atoms: _621  and  _622
REMARK  254  A    between atoms: _622  and  _623
REMARK  255  A    between atoms: _623  and  _624
REMARK  256  A    between atoms: _628  and  _630
REMARK  257  A    between atoms: _630  and  _631
REMARK  258  A    between atoms: _630  and  _633
REMARK  259  A    between atoms: _633  and  _634
REMARK  260  A    between atoms: _639  and  _641
REMARK  261  A    between atoms: _641  and  _642
REMARK  262  A    between atoms: _641  and  _644
REMARK  263  A    between atoms: _644  and  _645
REMARK  264  A    between atoms: _645  and  _646
REMARK  265  A    between atoms: _646  and  _647
REMARK  266  A    between atoms: _647  and  _648
REMARK  267  A    between atoms: _652  and  _654
REMARK  268  A    between atoms: _654  and  _655
REMARK  269  A    between atoms: _654  and  _657
REMARK  270  A    between atoms: _657  and  _658
REMARK  271  A    between atoms: _668  and  _670
REMARK  272  A    between atoms: _670  and  _671
REMARK  273  A    between atoms: _674  and  _676
REMARK  274  A    between atoms: _676  and  _677
REMARK  275  A    between atoms: _679  and  _681
REMARK  276  A    between atoms: _681  and  _682
REMARK  277  A    between atoms: _685  and  _687
REMARK  278  A    between atoms: _687  and  _688
REMARK  279  A    between atoms: _691  and  _693
REMARK  280  A    between atoms: _693  and  _694
REMARK  281  A    between atoms: _693  and  _696
REMARK  282  A    between atoms: _696  and  _697
REMARK  283  A    between atoms: _697  and  _698
REMARK  284  A    between atoms: _701  and  _703
REMARK  285  A    between atoms: _703  and  _704
REMARK  286  A    between atoms: _703  and  _706
REMARK  287  A    between atoms: _706  and  _707
REMARK  288  A    between atoms: _712  and  _713
REMARK  289  A    between atoms: _715  and  _717
REMARK  290  A    between atoms: _717  and  _718
REMARK  291  A    between atoms: _717  and  _720
REMARK  292  A    between atoms: _720  and  _721
REMARK  293  A    between atoms: _726  and  _727
REMARK  294  A    between atoms: _729  and  _731
REMARK  295  A    between atoms: _731  and  _732
REMARK  296  A    between atoms: _731  and  _734
REMARK  297  A    between atoms: _734  and  _735
REMARK  298  A    between atoms: _735  and  _736
REMARK  299  A    between atoms: _736  and  _737
REMARK  300  A    between atoms: _746  and  _748
REMARK  301  A    between atoms: _748  and  _749
REMARK  302  A    between atoms: _752  and  _754
REMARK  303  A    between atoms: _754  and  _755
REMARK  304  A    between atoms: _754  and  _757
REMARK  305  A    between atoms: _757  and  _758
REMARK  306  A    between atoms: _763  and  _764
REMARK  307  A    between atoms: _766  and  _768
REMARK  308  A    between atoms: _768  and  _769
REMARK  309  A    between atoms: _768  and  _771
REMARK  310  A    between atoms: _771  and  _772
REMARK  311  A    between atoms: _775  and  _777
REMARK  312  A    between atoms: _777  and  _778
REMARK  313  A    between atoms: _777  and  _780
REMARK  314  A    between atoms: _780  and  _781
REMARK  315  A    between atoms: _784  and  _786
REMARK  316  A    between atoms: _786  and  _787
REMARK  317  A    between atoms: _786  and  _789
REMARK  318  A    between atoms: _789  and  _790
REMARK  319  A    between atoms: _791  and  _793
REMARK  320  A    between atoms: _793  and  _794
REMARK  321  A    between atoms: _793  and  _796
REMARK  322  A    between atoms: _799  and  _801
REMARK  323  A    between atoms: _801  and  _802
REMARK  324  A    between atoms: _801  and  _804
REMARK  325  A    between atoms: _804  and  _805
REMARK  326  A    between atoms: _805  and  _806
REMARK  327  A    between atoms: _809  and  _811
REMARK  328  A    between atoms: _811  and  _812
REMARK  329  A    between atoms: _811  and  _814
REMARK  330  A    between atoms: _814  and  _815
REMARK  331  A    between atoms: _825  and  _827
REMARK  332  A    between atoms: _827  and  _828
REMARK  333  A    between atoms: _827  and  _830
REMARK  334  A    between atoms: _830  and  _831
REMARK  335  A    between atoms: _834  and  _836
REMARK  336  A    between atoms: _836  and  _837
REMARK  337  A    between atoms: _836  and  _839
REMARK  338  A    between atoms: _839  and  _840
REMARK  339  A    between atoms: _840  and  _841
REMARK  340  A    between atoms: _841  and  _842
REMARK  341  A    between atoms: _851  and  _853
REMARK  342  A    between atoms: _853  and  _854
REMARK  343  A    between atoms: _853  and  _856
REMARK  344  A    between atoms: _856  and  _857
REMARK  345  A    between atoms: _862  and  _863
REMARK                            x       y       z     vdW  Elec       q    Type
REMARK                         _______ _______ _______ _____ _____    ______ ____
ROOT
ATOM      1  CA  MET A   1      48.446  52.530  14.997  0.00  0.00    +0.134 C 
ENDROOT
BRANCH   1   2
ATOM      2  N   MET A   1      49.170  51.393  15.567  0.00  0.00    -0.239 NA
ATOM      3  H   MET A   1      48.809  50.426  15.442  0.00  0.00    +0.142 HD
ENDBRANCH   1   2
BRANCH   1   4
ATOM      4  C   MET A   1      47.721  53.308  16.091  0.00  0.00    +0.224 C 
ATOM      5  O   MET A   1      47.036  54.300  15.822  0.00  0.00    -0.287 OA
ENDBRANCH   1   4
BRANCH   1   6
ATOM      6  CB  MET A   1      47.467  52.085  13.913  0.00  0.00    +0.037 C 
BRANCH   6   7
ATOM      7  CG  MET A   1      48.163  51.835  12.555  0.00  0.00    +0.059 C 
BRANCH   7   8
ATOM      8  SD  MET A   1      49.117  53.274  11.899  0.00  0.00    -0.139 S 
ATOM      9  CE  MET A   1      47.740  54.230  11.272  0.00  0.00    +0.069 C 
ENDBRANCH   7   8
ENDBRANCH   6   7
ENDBRANCH   1   6
TORSDOF 5
REMARK  Name = ../refined-set-2016/1fzj/1fzj_pocket.pdb
REMARK  345 active torsions:
REMARK  status: ('A' for Active; 'I' for Inactive)
REMARK    1  A    between atoms: _1  and  _3
REMARK    2  A    between atoms: _3  and  _4
REMARK    3  A    between atoms: _3  and  _6
REMARK    4  A    between atoms: _6  and  _7
REMARK    5  A    between atoms: _10  and  _12
REMARK    6  A    between atoms: _12  and  _13
REMARK    7  A    between atoms: _12  and  _15
REMARK    8  A    between atoms: _15  and  _16
REMARK    9  A    between atoms: _16  and  _17
REMARK   10  A    between atoms: _17  and  _18
REMARK   11  A    between atoms: _27  and  _29
REMARK   12  A    between atoms: _29  and  _30
REMARK   13  A    between atoms: _29  and  _32
REMARK   14  A    between atoms: _32  and  _33
REMARK   15  A    between atoms: _38  and  _39
REMARK   16  A    between atoms: _41  and  _43
REMARK   17  A    between atoms: _43  and  _44
REMARK   18  A    between atoms: _43  and  _46
REMARK   19  A    between atoms: _46  and  _47
REMARK   20  A    between atoms: _53  and  _55
REMARK   21  A    between atoms: _55  and  _56
REMARK   22  A    between atoms: _55  and  _58
REMARK   23  A    between atoms: _61  and  _63
REMARK   24  A    between atoms: _63  and  _64
REMARK   25  A    between atoms: _63  and  _66
REMARK   26  A    between atoms: _66  and  _67
REMARK   27  A    between atoms: _70  and  _72
REMARK   28  A    between atoms: _72  and  _73
REMARK   29  A    between atoms: _72  and  _75
REMARK   30  A    between atoms: _75  and  _76
REMARK   31  A    between atoms: _81  and  _82
REMARK   32  A    between atoms: _84  and  _86
REMARK   33  A    between atoms: _86  and  _87
REMARK   34  A    between atoms: _86  and  _89
REMARK   35  A    between atoms: _89  and  _90
REMARK   36  A    between atoms: _90  and  _91
REMARK   37  A    between atoms: _93  and  _95
REMARK   38  A    between atoms: _95  and  _96
REMARK   39  A    between atoms: _95  and  _98
REMARK   40  A    between atoms: _98  and  _99
REMARK   41  A    between atoms: _99  and  _100
REMARK   42  A    between atoms: _103  and  _105
REMARK   43  A    between atoms: _105  and  _106
REMARK   44  A    between atoms: _105  and  _108
REMARK   45  A    between atoms: _111  and  _113
REMARK   46  A    between atoms: _113  and  _114
REMARK   47  A    between atoms: _113  and  _116
REMARK   48  A    between atoms: _119  and  _121
REMARK   49  A    between atoms: _121  and  _122
REMARK   50  A    between atoms: _121  and  _124
REMARK   51  A    between atoms: _124  and  _125
REMARK   52  A    between atoms: _131  and  _133
REMARK   53  A    between atoms: _133  and  _134
REMARK   54  A    between atoms: _133  and  _136
REMARK   55  A    between atoms: _139  and  _141
REMARK   56  A    between atoms: _141  and  _142
REMARK   57  A    between atoms: _141  and  _144
REMARK   58  A    between atoms: _144  and  _145
REMARK   59  A    between atoms: _150  and  _151
REMARK   60  A    between atoms: _153  and  _155
REMARK   61  A    between atoms: _155  and  _156
REMARK   62  A    between atoms: _155  and  _158
REMARK   63  A    between atoms: _158  and  _159
REMARK   64  A    between atoms: _159  and  _160
REMARK   65  A    between atoms: _162  and  _164
REMARK   66  A    between atoms: _164  and  _165
REMARK   67  A    between atoms: _164  and  _167
REMARK   68  A    between atoms: _167  and  _168
REMARK   69  A    between atoms: _168  and  _169
REMARK   70  A    between atoms: _172  and  _174
REMARK   71  A    between atoms: _174  and  _175
REMARK   72  A    between atoms: _174  and  _177
REMARK   73  A    between atoms: _177  and  _178
REMARK   74  A    between atoms: _178  and  _179
REMARK   75  A    between atoms: _182  and  _184
REMARK   76  A    between atoms: _184  and  _185
REMARK   77  A    between atoms: _184  and  _187
REMARK   78  A    between atoms: _187  and  _188
REMARK   79  A    between atoms: _193  and  _194
REMARK   80  A    between atoms: _196  and  _198
REMARK   81  A    between atoms: _198  and  _199
REMARK   82  A    between atoms: _198  and  _201
REMARK   83  A    between atoms: _201  and  _202
REMARK   84  A    between atoms: _212  and  _214
REMARK   85  A    between atoms: _214  and  _215
REMARK   86  A    between atoms: _214  and  _217
REMARK   87  A    between atoms: _217  and  _218
REMARK   88  A    between atoms: _218  and  _219
REMARK   89  A    between atoms: _222  and  _224
REMARK   90  A    between atoms: _224  and  _225
REMARK   91  A    between atoms: _224  and  _227
REMARK   92  A    between atoms: _227  and  _228
REMARK   93  A    between atoms: _228  and  _229
REMARK   94  A    between atoms: _229  and  _230
REMARK   95  A    between atoms: _239  and  _241
REMARK   96  A    between atoms: _241  and  _242
REMARK   97  A    between atoms: _241  and  _244
REMARK   98  A    between atoms: _244  and  _245
REMARK   99  A    between atoms: _245  and  _246
REMARK  100  A    between atoms: _249  and  _251
REMARK  101  A    between atoms: _251  and  _252
REMARK  102  A    between atoms: _251  and  _254
REMARK  103  A    between atoms: _254  and  _255
REMARK  104  A    between atoms: _258  and  _260
REMARK  105  A    between atoms: _260  and  _261
REMARK  106  A    between atoms: _260  and  _263
REMARK  107  A    between atoms: _263  and  _264
REMARK  108  A    between atoms: _264  and  _265
REMARK  109  A    between atoms: _270  and  _272
REMARK  110  A    between atoms: _272  and  _273
REMARK  111  A    between atoms: _272  and  _275
REMARK  112  A    between atoms: _275  and  _276
REMARK  113  A    between atoms: _276  and  _277
REMARK  114  A    between atoms: _277  and  _278
REMARK  115  A    between atoms: _278  and  _279
REMARK  116  A    between atoms: _283  and  _285
REMARK  117  A    between atoms: _285  and  _286
REMARK  118  A    between atoms: _289  and  _291
REMARK  119  A    between atoms: _291  and  _292
REMARK  120  A    between atoms: _294  and  _296
REMARK  121  A    between atoms: _296  and  _297
REMARK  122  A    between atoms: _296  and  _299
REMARK  123  A    between atoms: _299  and  _300
REMARK  124  A    between atoms: _305  and  _307
REMARK  125  A    between atoms: _307  and  _308
REMARK  126  A    between atoms: _307  and  _310
REMARK  127  A    between atoms: _310  and  _311
REMARK  128  A    between atoms: _311  and  _312
REMARK  129  A    between atoms: _315  and  _317
REMARK  130  A    between atoms: _317  and  _318
REMARK  131  A    between atoms: _317  and  _320
REMARK  132  A    between atoms: _320  and  _321
REMARK  133  A    between atoms: _323  and  _325
REMARK  134  A    between atoms: _325  and  _326
REMARK  135  A    between atoms: _325  and  _328
REMARK  136  A    between atoms: _328  and  _329
REMARK  137  A    between atoms: _335  and  _337
REMARK  138  A    between atoms: _337  and  _338
REMARK  139  A    between atoms: _337  and  _340
REMARK  140  A    between atoms: _343  and  _345
REMARK  141  A    between atoms: _345  and  _346
REMARK  142  A    between atoms: _345  and  _348
REMARK  143  A    between atoms: _348  and  _349
REMARK  144  A    between atoms: _352  and  _354
REMARK  145  A    between atoms: _354  and  _355
REMARK  146  A    between atoms: _354  and  _357
REMARK  147  A    between atoms: _357  and  _358
REMARK  148  A    between atoms: _361  and  _363
REMARK  149  A    between atoms: _363  and  _364
REMARK  150  A    between atoms: _363  and  _366
REMARK  151  A    between atoms: _366  and  _367
REMARK  152  A    between atoms: _370  and  _372
REMARK  153  A    between atoms: _372  and  _373
REMARK  154  A    between atoms: _372  and  _375
REMARK  155  A    between atoms: _375  and  _376
REMARK  156  A    between atoms: _379  and  _381
REMARK  157  A    between atoms: _381  and  _382
REMARK  158  A    between atoms: _381  and  _384
REMARK  159  A    between atoms: _384  and  _385
REMARK  160  A    between atoms: _390  and  _391
REMARK  161  A    between atoms: _393  and  _395
REMARK  162  A    between atoms: _395  and  _396
REMARK  163  A    between atoms: _395  and  _398
REMARK  164  A    between atoms: _398  and  _399
REMARK  165  A    between atoms: _404  and  _405
REMARK  166  A    between atoms: _407  and  _409
REMARK  167  A    between atoms: _409  and  _410
REMARK  168  A    between atoms: _409  and  _412
REMARK  169  A    between atoms: _412  and  _413
REMARK  170  A    between atoms: _416  and  _418
REMARK  171  A    between atoms: _418  and  _419
REMARK  172  A    between atoms: _418  and  _421
REMARK  173  A    between atoms: _421  and  _422
REMARK  174  A    between atoms: _422  and  _423
REMARK  175  A    between atoms: _428  and  _430
REMARK  176  A    between atoms: _430  and  _431
REMARK  177  A    between atoms: _430  and  _433
REMARK  178  A    between atoms: _436  and  _438
REMARK  179  A    between atoms: _438  and  _439
REMARK  180  A    between atoms: _438  and  _441
REMARK  181  A    between atoms: _441  and  _442
REMARK  182  A    between atoms: _445  and  _447
REMARK  183  A    between atoms: _447  and  _448
REMARK  184  A    between atoms: _447  and  _450
REMARK  185  A    between atoms: _450  and  _451
REMARK  186  A    between atoms: _453  and  _455
REMARK  187  A    between atoms: _455  and  _456
REMARK  188  A    between atoms: _458  and  _460
REMARK  189  A    between atoms: _460  and  _461
REMARK  190  A    between atoms: _460  and  _463
REMARK  191  A    between atoms: _463  and  _464
REMARK  192  A    between atoms: _464  and  _790
REMARK  193  A    between atoms: _465  and  _467
REMARK  194  A    between atoms: _467  and  _468
REMARK  195  A    between atoms: _467  and  _470
REMARK  196  A    between atoms: _470  and  _471
REMARK  197  A    between atoms: _476  and  _477
REMARK  198  A    between atoms: _479  and  _481
REMARK  199  A    between atoms: _481  and  _482
REMARK  200  A    between atoms: _481  and  _484
REMARK  201  A    between atoms: _484  and  _485
REMARK  202  A    between atoms: _485  and  _486
REMARK  203  A    between atoms: _491  and  _493
REMARK  204  A    between atoms: _493  and  _494
REMARK  205  A    between atoms: _493  and  _496
REMARK  206  A    between atoms: _496  and  _497
REMARK  207  A    between atoms: _497  and  _498
REMARK  208  A    between atoms: _503  and  _505
REMARK  209  A    between atoms: _505  and  _506
REMARK  210  A    between atoms: _505  and  _508
REMARK  211  A    between atoms: _508  and  _509
REMARK  212  A    between atoms: _514  and  _515
REMARK  213  A    between atoms: _517  and  _519
REMARK  214  A    between atoms: _519  and  _520
REMARK  215  A    between atoms: _523  and  _525
REMARK  216  A    between atoms: _525  and  _526
REMARK  217  A    between atoms: _525  and  _528
REMARK  218  A    between atoms: _528  and  _529
REMARK  219  A    between atoms: _534  and  _535
REMARK  220  A    between atoms: _537  and  _539
REMARK  221  A    between atoms: _539  and  _540
REMARK  222  A    between atoms: _539  and  _542
REMARK  223  A    between atoms: _542  and  _543
REMARK  224  A    between atoms: _548  and  _549
REMARK  225  A    between atoms: _551  and  _553
REMARK  226  A    between atoms: _553  and  _554
REMARK  227  A    between atoms: _553  and  _556
REMARK  228  A    between atoms: _556  and  _557
REMARK  229  A    between atoms: _560  and  _562
REMARK  230  A    between atoms: _562  and  _563
REMARK  231  A    between atoms: _562  and  _565
REMARK  232  A    between atoms: _565  and  _566
REMARK  233  A    between atoms: _576  and  _578
REMARK  234  A    between atoms: _578  and  _579
REMARK  235  A    between atoms: _582  and  _584
REMARK  236  A    between atoms: _584  and  _585
REMARK  237  A    between atoms: _588  and  _590
REMARK  238  A    between atoms: _590  and  _591
REMARK  239  A    between atoms: _590  and  _593
REMARK  240  A    between atoms: _593  and  _594
REMARK  241  A    between atoms: _597  and  _599
REMARK  242  A    between atoms: _599  and  _600
REMARK  243  A    between atoms: _599  and  _602
REMARK  244  A    between atoms: _602  and  _603
REMARK  245  A    between atoms: _606  and  _608
REMARK  246  A    between atoms: _608  and  _609
REMARK  247  A    between atoms: _608  and  _611
REMARK  248  A    between atoms: _611  and  _612
REMARK  249  A    between atoms: _615  and  _617
REMARK  250  A    between atoms: _617  and  _618
REMARK  251  A    between atoms: _617  and  _620
REMARK  252  A    between atoms: _620  and  _621
REMARK  253  A    between atoms: _621  and  _622
REMARK  254  A    between atoms: _622  and  _623
REMARK  255  A    between atoms: _623  and  _624
REMARK  256  A    between atoms: _628  and  _630
REMARK  257  A    between atoms: _630  and  _631
REMARK  258  A    between atoms: _630  and  _633
REMARK  259  A    between atoms: _633  and  _634
REMARK  260  A    between atoms: _639  and  _641
REMARK  261  A    between atoms: _641  and  _642
REMARK  262  A    between atoms: _641  and  _644
REMARK  263  A    between atoms: _644  and  _645
REMARK  264  A    between atoms: _645  and  _646
REMARK  265  A    between atoms: _646  and  _647
REMARK  266  A    between atoms: _647  and  _648
REMARK  267  A    between atoms: _652  and  _654
REMARK  268  A    between atoms: _654  and  _655
REMARK  269  A    between atoms: _654  and  _657
REMARK  270  A    between atoms: _657  and  _658
REMARK  271  A    between atoms: _668  and  _670
REMARK  272  A    between atoms: _670  and  _671
REMARK  273  A    between atoms: _674  and  _676
REMARK  274  A    between atoms: _676  and  _677
REMARK  275  A    between atoms: _679  and  _681
REMARK  276  A    between atoms: _681  and  _682
REMARK  277  A    between atoms: _685  and  _687
REMARK  278  A    between atoms: _687  and  _688
REMARK  279  A    between atoms: _691  and  _693
REMARK  280  A    between atoms: _693  and  _694
REMARK  281  A    between atoms: _693  and  _696
REMARK  282  A    between atoms: _696  and  _697
REMARK  283  A    between atoms: _697  and  _698
REMARK  284  A    between atoms: _701  and  _703
REMARK  285  A    between atoms: _703  and  _704
REMARK  286  A    between atoms: _703  and  _706
REMARK  287  A    between atoms: _706  and  _707
REMARK  288  A    between atoms: _712  and  _713
REMARK  289  A    between atoms: _715  and  _717
REMARK  290  A    between atoms: _717  and  _718
REMARK  291  A    between atoms: _717  and  _720
REMARK  292  A    between atoms: _720  and  _721
REMARK  293  A    between atoms: _726  and  _727
REMARK  294  A    between atoms: _729  and  _731
REMARK  295  A    between atoms: _731  and  _732
REMARK  296  A    between atoms: _731  and  _734
REMARK  297  A    between atoms: _734  and  _735
REMARK  298  A    between atoms: _735  and  _736
REMARK  299  A    between atoms: _736  and  _737
REMARK  300  A    between atoms: _746  and  _748
REMARK  301  A    between atoms: _748  and  _749
REMARK  302  A    between atoms: _752  and  _754
REMARK  303  A    between atoms: _754  and  _755
REMARK  304  A    between atoms: _754  and  _757
REMARK  305  A    between atoms: _757  and  _758
REMARK  306  A    between atoms: _763  and  _764
REMARK  307  A    between atoms: _766  and  _768
REMARK  308  A    between atoms: _768  and  _769
REMARK  309  A    between atoms: _768  and  _771
REMARK  310  A    between atoms: _771  and  _772
REMARK  311  A    between atoms: _775  and  _777
REMARK  312  A    between atoms: _777  and  _778
REMARK  313  A    between atoms: _777  and  _780
REMARK  314  A    between atoms: _780  and  _781
REMARK  315  A    between atoms: _784  and  _786
REMARK  316  A    between atoms: _786  and  _787
REMARK  317  A    between atoms: _786  and  _789
REMARK  318  A    between atoms: _789  and  _790
REMARK  319  A    between atoms: _791  and  _793
REMARK  320  A    between atoms: _793  and  _794
REMARK  321  A    between atoms: _793  and  _796
REMARK  322  A    between atoms: _799  and  _801
REMARK  323  A    between atoms: _801  and  _802
REMARK  324  A    between atoms: _801  and  _804
REMARK  325  A    between atoms: _804  and  _805
REMARK  326  A    between atoms: _805  and  _806
REMARK  327  A    between atoms: _809  and  _811
REMARK  328  A    between atoms: _811  and  _812
REMARK  329  A    between atoms: _811  and  _814
REMARK  330  A    between atoms: _814  and  _815
REMARK  331  A    between atoms: _825  and  _827
REMARK  332  A    between atoms: _827  and  _828
REMARK  333  A    between atoms: _827  and  _830
REMARK  334  A    between atoms: _830  and  _831
REMARK  335  A    between atoms: _834  and  _836
REMARK  336  A    between atoms: _836  and  _837
REMARK  337  A    between atoms: _836  and  _839
REMARK  338  A    between atoms: _839  and  _840
REMARK  339  A    between atoms: _840  and  _841
REMARK  340  A    between atoms: _841  and  _842
REMARK  341  A    between atoms: _851  and  _853
REMARK  342  A    between atoms: _853  and  _854
REMARK  343  A    between atoms: _853  and  _856
REMARK  344  A    between atoms: _856  and  _857
REMARK  345  A    between atoms: _862  and  _863
REMARK                            x       y       z     vdW  Elec       q    Type
REMARK                         _______ _______ _______ _____ _____    ______ ____
ROOT
ATOM      1  CA  GLU A   1      48.081  58.298  15.662  0.00  0.00    +0.134 C 
ENDROOT
BRANCH   1   2
ATOM      2  N   GLU A   1      48.594  57.165  16.441  0.00  0.00    -0.239 NA
ATOM      3  H   GLU A   1      48.160  56.226  16.336  0.00  0.00    +0.142 HD
ENDBRANCH   1   2
BRANCH   1   4
ATOM      4  C   GLU A   1      46.968  58.992  16.443  0.00  0.00    +0.224 C 
ATOM      5  O   GLU A   1      46.182  58.339  17.120  0.00  0.00    -0.287 OA
ENDBRANCH   1   4
BRANCH   1   6
ATOM      6  CB  GLU A   1      47.531  57.839  14.315  0.00  0.00    +0.037 C 
BRANCH   6   7
ATOM      7  CG  GLU A   1      48.573  57.312  13.359  0.00  0.00    +0.116 C 
BRANCH   7   8
ATOM      8  CD  GLU A   1      49.702  58.295  13.107  0.00  0.00    +0.365 C 
ATOM      9  OE2 GLU A   1      49.454  59.523  13.146  0.00  0.00    -0.246 OA
ATOM     10  OE1 GLU A   1      50.838  57.845  12.847  0.00  0.00    -0.246 OA
ENDBRANCH   7   8
ENDBRANCH   6   7
ENDBRANCH   1   6
TORSDOF 5
REMARK  Name = ../refined-set-2016/1fzj/1fzj_pocket.pdb
REMARK  345 active torsions:
REMARK  status: ('A' for Active; 'I' for Inactive)
REMARK    1  A    between atoms: _1  and  _3
REMARK    2  A    between atoms: _3  and  _4
REMARK    3  A    between atoms: _3  and  _6
REMARK    4  A    between atoms: _6  and  _7
REMARK    5  A    between atoms: _10  and  _12
REMARK    6  A    between atoms: _12  and  _13
REMARK    7  A    between atoms: _12  and  _15
REMARK    8  A    between atoms: _15  and  _16
REMARK    9  A    between atoms: _16  and  _17
REMARK   10  A    between atoms: _17  and  _18
REMARK   11  A    between atoms: _27  and  _29
REMARK   12  A    between atoms: _29  and  _30
REMARK   13  A    between atoms: _29  and  _32
REMARK   14  A    between atoms: _32  and  _33
REMARK   15  A    between atoms: _38  and  _39
REMARK   16  A    between atoms: _41  and  _43
REMARK   17  A    between atoms: _43  and  _44
REMARK   18  A    between atoms: _43  and  _46
REMARK   19  A    between atoms: _46  and  _47
REMARK   20  A    between atoms: _53  and  _55
REMARK   21  A    between atoms: _55  and  _56
REMARK   22  A    between atoms: _55  and  _58
REMARK   23  A    between atoms: _61  and  _63
REMARK   24  A    between atoms: _63  and  _64
REMARK   25  A    between atoms: _63  and  _66
REMARK   26  A    between atoms: _66  and  _67
REMARK   27  A    between atoms: _70  and  _72
REMARK   28  A    between atoms: _72  and  _73
REMARK   29  A    between atoms: _72  and  _75
REMARK   30  A    between atoms: _75  and  _76
REMARK   31  A    between atoms: _81  and  _82
REMARK   32  A    between atoms: _84  and  _86
REMARK   33  A    between atoms: _86  and  _87
REMARK   34  A    between atoms: _86  and  _89
REMARK   35  A    between atoms: _89  and  _90
REMARK   36  A    between atoms: _90  and  _91
REMARK   37  A    between atoms: _93  and  _95
REMARK   38  A    between atoms: _95  and  _96
REMARK   39  A    between atoms: _95  and  _98
REMARK   40  A    between atoms: _98  and  _99
REMARK   41  A    between atoms: _99  and  _100
REMARK   42  A    between atoms: _103  and  _105
REMARK   43  A    between atoms: _105  and  _106
REMARK   44  A    between atoms: _105  and  _108
REMARK   45  A    between atoms: _111  and  _113
REMARK   46  A    between atoms: _113  and  _114
REMARK   47  A    between atoms: _113  and  _116
REMARK   48  A    between atoms: _119  and  _121
REMARK   49  A    between atoms: _121  and  _122
REMARK   50  A    between atoms: _121  and  _124
REMARK   51  A    between atoms: _124  and  _125
REMARK   52  A    between atoms: _131  and  _133
REMARK   53  A    between atoms: _133  and  _134
REMARK   54  A    between atoms: _133  and  _136
REMARK   55  A    between atoms: _139  and  _141
REMARK   56  A    between atoms: _141  and  _142
REMARK   57  A    between atoms: _141  and  _144
REMARK   58  A    between atoms: _144  and  _145
REMARK   59  A    between atoms: _150  and  _151
REMARK   60  A    between atoms: _153  and  _155
REMARK   61  A    between atoms: _155  and  _156
REMARK   62  A    between atoms: _155  and  _158
REMARK   63  A    between atoms: _158  and  _159
REMARK   64  A    between atoms: _159  and  _160
REMARK   65  A    between atoms: _162  and  _164
REMARK   66  A    between atoms: _164  and  _165
REMARK   67  A    between atoms: _164  and  _167
REMARK   68  A    between atoms: _167  and  _168
REMARK   69  A    between atoms: _168  and  _169
REMARK   70  A    between atoms: _172  and  _174
REMARK   71  A    between atoms: _174  and  _175
REMARK   72  A    between atoms: _174  and  _177
REMARK   73  A    between atoms: _177  and  _178
REMARK   74  A    between atoms: _178  and  _179
REMARK   75  A    between atoms: _182  and  _184
REMARK   76  A    between atoms: _184  and  _185
REMARK   77  A    between atoms: _184  and  _187
REMARK   78  A    between atoms: _187  and  _188
REMARK   79  A    between atoms: _193  and  _194
REMARK   80  A    between atoms: _196  and  _198
REMARK   81  A    between atoms: _198  and  _199
REMARK   82  A    between atoms: _198  and  _201
REMARK   83  A    between atoms: _201  and  _202
REMARK   84  A    between atoms: _212  and  _214
REMARK   85  A    between atoms: _214  and  _215
REMARK   86  A    between atoms: _214  and  _217
REMARK   87  A    between atoms: _217  and  _218
REMARK   88  A    between atoms: _218  and  _219
REMARK   89  A    between atoms: _222  and  _224
REMARK   90  A    between atoms: _224  and  _225
REMARK   91  A    between atoms: _224  and  _227
REMARK   92  A    between atoms: _227  and  _228
REMARK   93  A    between atoms: _228  and  _229
REMARK   94  A    between atoms: _229  and  _230
REMARK   95  A    between atoms: _239  and  _241
REMARK   96  A    between atoms: _241  and  _242
REMARK   97  A    between atoms: _241  and  _244
REMARK   98  A    between atoms: _244  and  _245
REMARK   99  A    between atoms: _245  and  _246
REMARK  100  A    between atoms: _249  and  _251
REMARK  101  A    between atoms: _251  and  _252
REMARK  102  A    between atoms: _251  and  _254
REMARK  103  A    between atoms: _254  and  _255
REMARK  104  A    between atoms: _258  and  _260
REMARK  105  A    between atoms: _260  and  _261
REMARK  106  A    between atoms: _260  and  _263
REMARK  107  A    between atoms: _263  and  _264
REMARK  108  A    between atoms: _264  and  _265
REMARK  109  A    between atoms: _270  and  _272
REMARK  110  A    between atoms: _272  and  _273
REMARK  111  A    between atoms: _272  and  _275
REMARK  112  A    between atoms: _275  and  _276
REMARK  113  A    between atoms: _276  and  _277
REMARK  114  A    between atoms: _277  and  _278
REMARK  115  A    between atoms: _278  and  _279
REMARK  116  A    between atoms: _283  and  _285
REMARK  117  A    between atoms: _285  and  _286
REMARK  118  A    between atoms: _289  and  _291
REMARK  119  A    between atoms: _291  and  _292
REMARK  120  A    between atoms: _294  and  _296
REMARK  121  A    between atoms: _296  and  _297
REMARK  122  A    between atoms: _296  and  _299
REMARK  123  A    between atoms: _299  and  _300
REMARK  124  A    between atoms: _305  and  _307
REMARK  125  A    between atoms: _307  and  _308
REMARK  126  A    between atoms: _307  and  _310
REMARK  127  A    between atoms: _310  and  _311
REMARK  128  A    between atoms: _311  and  _312
REMARK  129  A    between atoms: _315  and  _317
REMARK  130  A    between atoms: _317  and  _318
REMARK  131  A    between atoms: _317  and  _320
REMARK  132  A    between atoms: _320  and  _321
REMARK  133  A    between atoms: _323  and  _325
REMARK  134  A    between atoms: _325  and  _326
REMARK  135  A    between atoms: _325  and  _328
REMARK  136  A    between atoms: _328  and  _329
REMARK  137  A    between atoms: _335  and  _337
REMARK  138  A    between atoms: _337  and  _338
REMARK  139  A    between atoms: _337  and  _340
REMARK  140  A    between atoms: _343  and  _345
REMARK  141  A    between atoms: _345  and  _346
REMARK  142  A    between atoms: _345  and  _348
REMARK  143  A    between atoms: _348  and  _349
REMARK  144  A    between atoms: _352  and  _354
REMARK  145  A    between atoms: _354  and  _355
REMARK  146  A    between atoms: _354  and  _357
REMARK  147  A    between atoms: _357  and  _358
REMARK  148  A    between atoms: _361  and  _363
REMARK  149  A    between atoms: _363  and  _364
REMARK  150  A    between atoms: _363  and  _366
REMARK  151  A    between atoms: _366  and  _367
REMARK  152  A    between atoms: _370  and  _372
REMARK  153  A    between atoms: _372  and  _373
REMARK  154  A    between atoms: _372  and  _375
REMARK  155  A    between atoms: _375  and  _376
REMARK  156  A    between atoms: _379  and  _381
REMARK  157  A    between atoms: _381  and  _382
REMARK  158  A    between atoms: _381  and  _384
REMARK  159  A    between atoms: _384  and  _385
REMARK  160  A    between atoms: _390  and  _391
REMARK  161  A    between atoms: _393  and  _395
REMARK  162  A    between atoms: _395  and  _396
REMARK  163  A    between atoms: _395  and  _398
REMARK  164  A    between atoms: _398  and  _399
REMARK  165  A    between atoms: _404  and  _405
REMARK  166  A    between atoms: _407  and  _409
REMARK  167  A    between atoms: _409  and  _410
REMARK  168  A    between atoms: _409  and  _412
REMARK  169  A    between atoms: _412  and  _413
REMARK  170  A    between atoms: _416  and  _418
REMARK  171  A    between atoms: _418  and  _419
REMARK  172  A    between atoms: _418  and  _421
REMARK  173  A    between atoms: _421  and  _422
REMARK  174  A    between atoms: _422  and  _423
REMARK  175  A    between atoms: _428  and  _430
REMARK  176  A    between atoms: _430  and  _431
REMARK  177  A    between atoms: _430  and  _433
REMARK  178  A    between atoms: _436  and  _438
REMARK  179  A    between atoms: _438  and  _439
REMARK  180  A    between atoms: _438  and  _441
REMARK  181  A    between atoms: _441  and  _442
REMARK  182  A    between atoms: _445  and  _447
REMARK  183  A    between atoms: _447  and  _448
REMARK  184  A    between atoms: _447  and  _450
REMARK  185  A    between atoms: _450  and  _451
REMARK  186  A    between atoms: _453  and  _455
REMARK  187  A    between atoms: _455  and  _456
REMARK  188  A    between atoms: _458  and  _460
REMARK  189  A    between atoms: _460  and  _461
REMARK  190  A    between atoms: _460  and  _463
REMARK  191  A    between atoms: _463  and  _464
REMARK  192  A    between atoms: _464  and  _790
REMARK  193  A    between atoms: _465  and  _467
REMARK  194  A    between atoms: _467  and  _468
REMARK  195  A    between atoms: _467  and  _470
REMARK  196  A    between atoms: _470  and  _471
REMARK  197  A    between atoms: _476  and  _477
REMARK  198  A    between atoms: _479  and  _481
REMARK  199  A    between atoms: _481  and  _482
REMARK  200  A    between atoms: _481  and  _484
REMARK  201  A    between atoms: _484  and  _485
REMARK  202  A    between atoms: _485  and  _486
REMARK  203  A    between atoms: _491  and  _493
REMARK  204  A    between atoms: _493  and  _494
REMARK  205  A    between atoms: _493  and  _496
REMARK  206  A    between atoms: _496  and  _497
REMARK  207  A    between atoms: _497  and  _498
REMARK  208  A    between atoms: _503  and  _505
REMARK  209  A    between atoms: _505  and  _506
REMARK  210  A    between atoms: _505  and  _508
REMARK  211  A    between atoms: _508  and  _509
REMARK  212  A    between atoms: _514  and  _515
REMARK  213  A    between atoms: _517  and  _519
REMARK  214  A    between atoms: _519  and  _520
REMARK  215  A    between atoms: _523  and  _525
REMARK  216  A    between atoms: _525  and  _526
REMARK  217  A    between atoms: _525  and  _528
REMARK  218  A    between atoms: _528  and  _529
REMARK  219  A    between atoms: _534  and  _535
REMARK  220  A    between atoms: _537  and  _539
REMARK  221  A    between atoms: _539  and  _540
REMARK  222  A    between atoms: _539  and  _542
REMARK  223  A    between atoms: _542  and  _543
REMARK  224  A    between atoms: _548  and  _549
REMARK  225  A    between atoms: _551  and  _553
REMARK  226  A    between atoms: _553  and  _554
REMARK  227  A    between atoms: _553  and  _556
REMARK  228  A    between atoms: _556  and  _557
REMARK  229  A    between atoms: _560  and  _562
REMARK  230  A    between atoms: _562  and  _563
REMARK  231  A    between atoms: _562  and  _565
REMARK  232  A    between atoms: _565  and  _566
REMARK  233  A    between atoms: _576  and  _578
REMARK  234  A    between atoms: _578  and  _579
REMARK  235  A    between atoms: _582  and  _584
REMARK  236  A    between atoms: _584  and  _585
REMARK  237  A    between atoms: _588  and  _590
REMARK  238  A    between atoms: _590  and  _591
REMARK  239  A    between atoms: _590  and  _593
REMARK  240  A    between atoms: _593  and  _594
REMARK  241  A    between atoms: _597  and  _599
REMARK  242  A    between atoms: _599  and  _600
REMARK  243  A    between atoms: _599  and  _602
REMARK  244  A    between atoms: _602  and  _603
REMARK  245  A    between atoms: _606  and  _608
REMARK  246  A    between atoms: _608  and  _609
REMARK  247  A    between atoms: _608  and  _611
REMARK  248  A    between atoms: _611  and  _612
REMARK  249  A    between atoms: _615  and  _617
REMARK  250  A    between atoms: _617  and  _618
REMARK  251  A    between atoms: _617  and  _620
REMARK  252  A    between atoms: _620  and  _621
REMARK  253  A    between atoms: _621  and  _622
REMARK  254  A    between atoms: _622  and  _623
REMARK  255  A    between atoms: _623  and  _624
REMARK  256  A    between atoms: _628  and  _630
REMARK  257  A    between atoms: _630  and  _631
REMARK  258  A    between atoms: _630  and  _633
REMARK  259  A    between atoms: _633  and  _634
REMARK  260  A    between atoms: _639  and  _641
REMARK  261  A    between atoms: _641  and  _642
REMARK  262  A    between atoms: _641  and  _644
REMARK  263  A    between atoms: _644  and  _645
REMARK  264  A    between atoms: _645  and  _646
REMARK  265  A    between atoms: _646  and  _647
REMARK  266  A    between atoms: _647  and  _648
REMARK  267  A    between atoms: _652  and  _654
REMARK  268  A    between atoms: _654  and  _655
REMARK  269  A    between atoms: _654  and  _657
REMARK  270  A    between atoms: _657  and  _658
REMARK  271  A    between atoms: _668  and  _670
REMARK  272  A    between atoms: _670  and  _671
REMARK  273  A    between atoms: _674  and  _676
REMARK  274  A    between atoms: _676  and  _677
REMARK  275  A    between atoms: _679  and  _681
REMARK  276  A    between atoms: _681  and  _682
REMARK  277  A    between atoms: _685  and  _687
REMARK  278  A    between atoms: _687  and  _688
REMARK  279  A    between atoms: _691  and  _693
REMARK  280  A    between atoms: _693  and  _694
REMARK  281  A    between atoms: _693  and  _696
REMARK  282  A    between atoms: _696  and  _697
REMARK  283  A    between atoms: _697  and  _698
REMARK  284  A    between atoms: _701  and  _703
REMARK  285  A    between atoms: _703  and  _704
REMARK  286  A    between atoms: _703  and  _706
REMARK  287  A    between atoms: _706  and  _707
REMARK  288  A    between atoms: _712  and  _713
REMARK  289  A    between atoms: _715  and  _717
REMARK  290  A    between atoms: _717  and  _718
REMARK  291  A    between atoms: _717  and  _720
REMARK  292  A    between atoms: _720  and  _721
REMARK  293  A    between atoms: _726  and  _727
REMARK  294  A    between atoms: _729  and  _731
REMARK  295  A    between atoms: _731  and  _732
REMARK  296  A    between atoms: _731  and  _734
REMARK  297  A    between atoms: _734  and  _735
REMARK  298  A    between atoms: _735  and  _736
REMARK  299  A    between atoms: _736  and  _737
REMARK  300  A    between atoms: _746  and  _748
REMARK  301  A    between atoms: _748  and  _749
REMARK  302  A    between atoms: _752  and  _754
REMARK  303  A    between atoms: _754  and  _755
REMARK  304  A    between atoms: _754  and  _757
REMARK  305  A    between atoms: _757  and  _758
REMARK  306  A    between atoms: _763  and  _764
REMARK  307  A    between atoms: _766  and  _768
REMARK  308  A    between atoms: _768  and  _769
REMARK  309  A    between atoms: _768  and  _771
REMARK  310  A    between atoms: _771  and  _772
REMARK  311  A    between atoms: _775  and  _777
REMARK  312  A    between atoms: _777  and  _778
REMARK  313  A    between atoms: _777  and  _780
REMARK  314  A    between atoms: _780  and  _781
REMARK  315  A    between atoms: _784  and  _786
REMARK  316  A    between atoms: _786  and  _787
REMARK  317  A    between atoms: _786  and  _789
REMARK  318  A    between atoms: _789  and  _790
REMARK  319  A    between atoms: _791  and  _793
REMARK  320  A    between atoms: _793  and  _794
REMARK  321  A    between atoms: _793  and  _796
REMARK  322  A    between atoms: _799  and  _801
REMARK  323  A    between atoms: _801  and  _802
REMARK  324  A    between atoms: _801  and  _804
REMARK  325  A    between atoms: _804  and  _805
REMARK  326  A    between atoms: _805  and  _806
REMARK  327  A    between atoms: _809  and  _811
REMARK  328  A    between atoms: _811  and  _812
REMARK  329  A    between atoms: _811  and  _814
REMARK  330  A    between atoms: _814  and  _815
REMARK  331  A    between atoms: _825  and  _827
REMARK  332  A    between atoms: _827  and  _828
REMARK  333  A    between atoms: _827  and  _830
REMARK  334  A    between atoms: _830  and  _831
REMARK  335  A    between atoms: _834  and  _836
REMARK  336  A    between atoms: _836  and  _837
REMARK  337  A    between atoms: _836  and  _839
REMARK  338  A    between atoms: _839  and  _840
REMARK  339  A    between atoms: _840  and  _841
REMARK  340  A    between atoms: _841  and  _842
REMARK  341  A    between atoms: _851  and  _853
REMARK  342  A    between atoms: _853  and  _854
REMARK  343  A    between atoms: _853  and  _856
REMARK  344  A    between atoms: _856  and  _857
REMARK  345  A    between atoms: _862  and  _863
REMARK                            x       y       z     vdW  Elec       q    Type
REMARK                         _______ _______ _______ _____ _____    ______ ____
ROOT
ATOM      1  CA  ARG A   5      40.916  62.763   8.006  0.00  0.00    +0.149 C 
ENDROOT
BRANCH   1   2
ATOM      2  C   ARG A   5      40.897  61.572   7.066  0.00  0.00    +0.241 C 
ATOM      3  N   GLU A   6      41.315  60.409   7.551  0.00  0.00    -0.297 N 
ATOM      4  H   GLU A   6      41.649  60.336   8.533  0.00  0.00    +0.150 HD
ATOM      5  O   ARG A   5      40.528  61.702   5.906  0.00  0.00    -0.273 OA
BRANCH   3   6
ATOM      6  CA  GLU A   6      41.298  59.236   6.685  0.00  0.00    +0.149 C 
BRANCH   6   7
ATOM      7  C   GLU A   6      39.865  58.799   6.416  0.00  0.00    +0.241 C 
ATOM      8  N   THR A   7      38.986  58.967   7.397  0.00  0.00    -0.295 N 
ATOM      9  H   THR A   7      39.297  59.368   8.305  0.00  0.00    +0.150 HD
ATOM     10  O   GLU A   6      39.550  58.336   5.318  0.00  0.00    -0.273 OA
BRANCH   8  11
ATOM     11  CA  THR A   7      37.590  58.594   7.212  0.00  0.00    +0.176 C 
BRANCH  11  12
ATOM     12  C   THR A   7      36.941  59.516   6.165  0.00  0.00    +0.243 C 
ATOM     13  N   GLN A   8      37.242  60.816   6.216  0.00  0.00    -0.297 N 
ATOM     14  H   GLN A   8      37.875  61.180   6.957  0.00  0.00    +0.150 HD
ATOM     15  O   THR A   7      36.179  59.061   5.308  0.00  0.00    -0.273 OA
BRANCH  13  16
ATOM     16  CA  GLN A   8      36.675  61.719   5.223  0.00  0.00    +0.149 C 
BRANCH  16  17
ATOM     17  C   GLN A   8      37.195  61.401   3.826  0.00  0.00    +0.241 C 
ATOM     18  N   LYS A   9      38.473  61.055   3.725  0.00  0.00    -0.297 N 
ATOM     19  H   LYS A   9      39.062  61.020   4.582  0.00  0.00    +0.150 HD
ATOM     20  O   GLN A   8      36.454  61.473   2.848  0.00  0.00    -0.273 OA
BRANCH  18  21
ATOM     21  CA  LYS A   9      39.068  60.722   2.432  0.00  0.00    +0.149 C 
BRANCH  21  22
ATOM     22  C   LYS A   9      38.403  59.456   1.867  0.00  0.00    +0.241 C 
ATOM     23  N   ALA A  10      38.172  58.492   2.749  0.00  0.00    -0.298 N 
ATOM     24  H   ALA A  10      38.452  58.637   3.740  0.00  0.00    +0.150 HD
ATOM     25  O   LYS A   9      38.130  59.349   0.664  0.00  0.00    -0.273 OA
BRANCH  23  26
ATOM     26  CA  ALA A  10      37.534  57.228   2.367  0.00  0.00    +0.137 C 
ATOM     27  CB  ALA A  10      37.552  56.272   3.557  0.00  0.00    +0.030 C 
BRANCH  26  28
ATOM     28  C   ALA A  10      36.096  57.457   1.889  0.00  0.00    +0.227 C 
ATOM     29  O   ALA A  10      35.673  56.895   0.883  0.00  0.00    -0.286 OA
ENDBRANCH  26  28
ENDBRANCH  23  26
ENDBRANCH  21  22
BRANCH  21  30
ATOM     30  CB  LYS A   9      40.575  60.494   2.602  0.00  0.00    +0.029 C 
BRANCH  30  31
ATOM     31  CG  LYS A   9      41.341  60.188   1.317  0.00  0.00    +0.000 C 
BRANCH  31  32
ATOM     32  CD  LYS A   9      42.801  59.810   1.608  0.00  0.00    -0.024 C 
BRANCH  32  33
ATOM     33  CE  LYS A   9      43.524  60.859   2.455  0.00  0.00    -0.086 C 
BRANCH  33  34
ATOM     34  NZ  LYS A   9      44.950  60.495   2.762  0.00  0.00    +0.380 N 
ATOM     35  HZ1 LYS A   9      45.382  61.246   3.338  0.00  0.00    -0.089 HD
ATOM     36  HZ2 LYS A   9      44.972  59.598   3.287  0.00  0.00    -0.089 HD
ATOM     37  HZ3 LYS A   9      45.479  60.391   1.873  0.00  0.00    -0.089 HD
ENDBRANCH  33  34
ENDBRANCH  32  33
ENDBRANCH  31  32
ENDBRANCH  30  31
ENDBRANCH  21  30
ENDBRANCH  18  21
ENDBRANCH  16  17
BRANCH  16  38
ATOM     38  CB  GLN A   8      36.977  63.173   5.589  0.00  0.00    +0.039 C 
BRANCH  38  39
ATOM     39  CG  GLN A   8      36.404  63.606   6.928  0.00  0.00    +0.087 C 
BRANCH  39  40
ATOM     40  CD  GLN A   8      36.722  65.051   7.259  0.00  0.00    +0.219 C 
ATOM     41  NE2 GLN A   8      36.351  65.709   8.352  0.00  0.00    -0.329 N 
ATOM     42 HE21 GLN A   8      35.786  65.229   9.081  0.00  0.00    +0.145 HD
ATOM     43 HE22 GLN A   8      36.626  66.704   8.478  0.00  0.00    +0.145 HD
ATOM     44  OE1 GLN A   8      37.384  65.743   6.486  0.00  0.00    -0.275 OA
ENDBRANCH  39  40
ENDBRANCH  38  39
ENDBRANCH  16  38
ENDBRANCH  13  16
ENDBRANCH  11  12
BRANCH  11  45
ATOM     45  CB  THR A   7      36.791  58.673   8.535  0.00  0.00    +0.137 C 
ATOM     46  CG2 THR A   7      35.303  58.459   8.282  0.00  0.00    +0.034 C 
BRANCH  45  47
ATOM     47  OG1 THR A   7      37.257  57.662   9.438  0.00  0.00    -0.382 OA
ATOM     48  HG1 THR A   7      38.219  57.805   9.624  0.00  0.00    +0.210 HD
ENDBRANCH  45  47
ENDBRANCH  11  45
ENDBRANCH   8  11
ENDBRANCH   6   7
BRANCH   6  49
ATOM     49  CB  GLU A   6      42.121  58.100   7.306  0.00  0.00    +0.041 C 
BRANCH  49  50
ATOM     50  CG  GLU A   6      43.617  58.354   7.269  0.00  0.00    +0.116 C 
BRANCH  50  51
ATOM     51  CD  GLU A   6      44.161  58.459   5.845  0.00  0.00    +0.365 C 
ATOM     52  OE2 GLU A   6      44.430  59.587   5.394  0.00  0.00    -0.246 OA
ATOM     53  OE1 GLU A   6      44.318  57.414   5.168  0.00  0.00    -0.246 OA
ENDBRANCH  50  51
ENDBRANCH  49  50
ENDBRANCH   6  49
ENDBRANCH   3   6
ENDBRANCH   1   2
BRANCH   1  55
ATOM     54  C   GLU A   4      39.272  62.049   9.636  0.00  0.00    +0.241 C 
ATOM     55  N   ARG A   5      40.514  62.445   9.375  0.00  0.00    -0.297 N 
ATOM     56  H   ARG A   5      41.203  62.529  10.149  0.00  0.00    +0.150 HD
ATOM     57  O   GLU A   4      38.429  61.903   8.755  0.00  0.00    -0.273 OA
BRANCH  54  58
ATOM     58  CA  GLU A   4      38.920  61.747  11.091  0.00  0.00    +0.149 C 
BRANCH  58  60
ATOM     59  C   TRP A   3      40.167  59.699  11.207  0.00  0.00    +0.241 C 
ATOM     60  N   GLU A   4      39.955  60.918  11.689  0.00  0.00    -0.297 N 
ATOM     61  H   GLU A   4      40.522  61.276  12.484  0.00  0.00    +0.150 HD
ATOM     62  O   TRP A   3      39.526  59.245  10.260  0.00  0.00    -0.273 OA
BRANCH  59  63
ATOM     63  CA  TRP A   3      41.264  58.883  11.863  0.00  0.00    +0.153 C 
BRANCH  63  65
ATOM     64  C   TYR A   2      43.158  60.255  11.201  0.00  0.00    +0.241 C 
ATOM     65  N   TRP A   3      42.459  59.656  12.156  0.00  0.00    -0.297 N 
ATOM     66  H   TRP A   3      42.775  59.742  13.143  0.00  0.00    +0.150 HD
ATOM     67  O   TYR A   2      42.832  60.237  10.012  0.00  0.00    -0.273 OA
BRANCH  64  68
ATOM     68  CA  TYR A   2      44.396  61.003  11.662  0.00  0.00    +0.153 C 
BRANCH  68  70
ATOM     69  C   GLU A   1      43.108  62.887  12.447  0.00  0.00    +0.238 C 
ATOM     70  N   TYR A   2      44.014  61.951  12.691  0.00  0.00    -0.297 N 
ATOM     71  H   TYR A   2      44.456  61.896  13.631  0.00  0.00    +0.150 HD
ATOM     72  O   GLU A   1      42.571  63.032  11.350  0.00  0.00    -0.274 OA
BRANCH  69  73
ATOM     73  CA  GLU A   1      42.794  63.813  13.610  0.00  0.00    +0.145 C 
BRANCH  73  74
ATOM     74  N   GLU A   1      42.851  63.093  14.880  0.00  0.00    -0.238 NA
ATOM     75  H   GLU A   1      43.585  63.335  15.575  0.00  0.00    +0.142 HD
ENDBRANCH  73  74
BRANCH  73  76
ATOM     76  CB  GLU A   1      43.799  64.962  13.602  0.00  0.00    +0.038 C 
BRANCH  76  77
ATOM     77  CG  GLU A   1      43.434  66.105  14.525  0.00  0.00    +0.116 C 
BRANCH  77  78
ATOM     78  CD  GLU A   1      44.528  67.161  14.580  0.00  0.00    +0.365 C 
ATOM     79  OE2 GLU A   1      44.859  67.635  15.696  0.00  0.00    -0.246 OA
ATOM     80  OE1 GLU A   1      45.052  67.521  13.499  0.00  0.00    -0.246 OA
ENDBRANCH  77  78
ENDBRANCH  76  77
ENDBRANCH  73  76
ENDBRANCH  69  73
ENDBRANCH  68  70
BRANCH  68  81
ATOM     81  CB  TYR A   2      45.433  60.032  12.223  0.00  0.00    +0.055 C 
BRANCH  81  82
ATOM     82  CG  TYR A   2      45.886  58.984  11.239  0.00  0.00    -0.020 A 
ATOM     83  CD2 TYR A   2      45.126  57.829  11.017  0.00  0.00    -0.001 A 
ATOM     84  CE2 TYR A   2      45.533  56.871  10.090  0.00  0.00    +0.036 A 
ATOM     85  CZ  TYR A   2      46.696  57.065   9.375  0.00  0.00    +0.134 A 
ATOM     86  CE1 TYR A   2      47.473  58.204   9.581  0.00  0.00    +0.036 A 
ATOM     87  CD1 TYR A   2      47.059  59.153  10.515  0.00  0.00    -0.001 A 
BRANCH  85  88
ATOM     88  OH  TYR A   2      47.091  56.157   8.423  0.00  0.00    -0.506 OA
ATOM     89  HH  TYR A   2      47.989  55.809   8.653  0.00  0.00    +0.292 HD
ENDBRANCH  85  88
ENDBRANCH  81  82
ENDBRANCH  68  81
ENDBRANCH  64  68
ENDBRANCH  63  65
BRANCH  63  90
ATOM     90  CB  TRP A   3      40.766  58.231  13.147  0.00  0.00    +0.057 C 
BRANCH  90  91
ATOM     91  CG  TRP A   3      41.857  57.408  13.742  0.00  0.00    -0.002 A 
ATOM     92  CD1 TRP A   3      42.575  57.681  14.877  0.00  0.00    +0.068 A 
ATOM     93  NE1 TRP A   3      43.602  56.776  15.015  0.00  0.00    -0.352 N 
ATOM     94  HE1 TRP A   3      44.299  56.767  15.786  0.00  0.00    +0.166 HD
ATOM     95  CE2 TRP A   3      43.557  55.888  13.970  0.00  0.00    +0.056 A 
ATOM     96  CZ2 TRP A   3      44.388  54.790  13.675  0.00  0.00    +0.017 A 
ATOM     97  CH2 TRP A   3      44.107  54.062  12.543  0.00  0.00    +0.001 A 
ATOM     98  CZ3 TRP A   3      43.031  54.393  11.707  0.00  0.00    +0.000 A 
ATOM     99  CE3 TRP A   3      42.198  55.495  12.000  0.00  0.00    +0.001 A 
ATOM    100  CD2 TRP A   3      42.467  56.253  13.149  0.00  0.00    +0.013 A 
ENDBRANCH  90  91
ENDBRANCH  63  90
ENDBRANCH  59  63
ENDBRANCH  58  60
BRANCH  58 101
ATOM    101  CB  GLU A   4      38.749  63.050  11.878  0.00  0.00    +0.041 C 
BRANCH 101 102
ATOM    102  CG  GLU A   4      37.546  63.866  11.435  0.00  0.00    +0.116 C 
BRANCH 102 103
ATOM    103  CD  GLU A   4      36.247  63.094  11.583  0.00  0.00    +0.365 C 
ATOM    104  OE2 GLU A   4      35.999  62.565  12.690  0.00  0.00    -0.246 OA
ATOM    105  OE1 GLU A   4      35.469  63.019  10.600  0.00  0.00    -0.246 OA
ENDBRANCH 102 103
ENDBRANCH 101 102
ENDBRANCH  58 101
ENDBRANCH  54  58
ENDBRANCH   1  55
BRANCH   1 106
ATOM    106  CB  ARG A   5      42.305  63.388   7.972  0.00  0.00    +0.033 C 
BRANCH 106 107
ATOM    107  CG  ARG A   5      42.380  64.729   8.692  0.00  0.00    +0.045 C 
BRANCH 107 108
ATOM    108  CD  ARG A   5      43.725  65.373   8.486  0.00  0.00    +0.174 C 
BRANCH 108 109
ATOM    109  NE  ARG A   5      43.911  66.504   9.386  0.00  0.00    -0.265 N 
ATOM    110  HE  ARG A   5      43.263  66.601  10.193  0.00  0.00    +0.259 HD
ATOM    111  CZ  ARG A   5      44.863  67.417   9.232  0.00  0.00    +0.342 C 
ATOM    112  NH2 ARG A   5      44.975  68.416  10.103  0.00  0.00    -0.292 N 
ATOM    113 HH21 ARG A   5      44.317  68.483  10.905  0.00  0.00    +0.255 HD
ATOM    114 HH22 ARG A   5      45.721  69.131   9.982  0.00  0.00    +0.255 HD
ATOM    115  NH1 ARG A   5      45.704  67.322   8.206  0.00  0.00    -0.292 N 
ATOM    116 HH11 ARG A   5      46.452  68.033   8.079  0.00  0.00    +0.255 HD
ATOM    117 HH12 ARG A   5      45.614  66.536   7.531  0.00  0.00    +0.255 HD
ENDBRANCH 108 109
ENDBRANCH 107 108
ENDBRANCH 106 107
ENDBRANCH   1 106
TORSDOF 48
REMARK  Name = ../refined-set-2016/1fzj/1fzj_pocket.pdb
REMARK  345 active torsions:
REMARK  status: ('A' for Active; 'I' for Inactive)
REMARK    1  A    between atoms: _1  and  _3
REMARK    2  A    between atoms: _3  and  _4
REMARK    3  A    between atoms: _3  and  _6
REMARK    4  A    between atoms: _6  and  _7
REMARK    5  A    between atoms: _10  and  _12
REMARK    6  A    between atoms: _12  and  _13
REMARK    7  A    between atoms: _12  and  _15
REMARK    8  A    between atoms: _15  and  _16
REMARK    9  A    between atoms: _16  and  _17
REMARK   10  A    between atoms: _17  and  _18
REMARK   11  A    between atoms: _27  and  _29
REMARK   12  A    between atoms: _29  and  _30
REMARK   13  A    between atoms: _29  and  _32
REMARK   14  A    between atoms: _32  and  _33
REMARK   15  A    between atoms: _38  and  _39
REMARK   16  A    between atoms: _41  and  _43
REMARK   17  A    between atoms: _43  and  _44
REMARK   18  A    between atoms: _43  and  _46
REMARK   19  A    between atoms: _46  and  _47
REMARK   20  A    between atoms: _53  and  _55
REMARK   21  A    between atoms: _55  and  _56
REMARK   22  A    between atoms: _55  and  _58
REMARK   23  A    between atoms: _61  and  _63
REMARK   24  A    between atoms: _63  and  _64
REMARK   25  A    between atoms: _63  and  _66
REMARK   26  A    between atoms: _66  and  _67
REMARK   27  A    between atoms: _70  and  _72
REMARK   28  A    between atoms: _72  and  _73
REMARK   29  A    between atoms: _72  and  _75
REMARK   30  A    between atoms: _75  and  _76
REMARK   31  A    between atoms: _81  and  _82
REMARK   32  A    between atoms: _84  and  _86
REMARK   33  A    between atoms: _86  and  _87
REMARK   34  A    between atoms: _86  and  _89
REMARK   35  A    between atoms: _89  and  _90
REMARK   36  A    between atoms: _90  and  _91
REMARK   37  A    between atoms: _93  and  _95
REMARK   38  A    between atoms: _95  and  _96
REMARK   39  A    between atoms: _95  and  _98
REMARK   40  A    between atoms: _98  and  _99
REMARK   41  A    between atoms: _99  and  _100
REMARK   42  A    between atoms: _103  and  _105
REMARK   43  A    between atoms: _105  and  _106
REMARK   44  A    between atoms: _105  and  _108
REMARK   45  A    between atoms: _111  and  _113
REMARK   46  A    between atoms: _113  and  _114
REMARK   47  A    between atoms: _113  and  _116
REMARK   48  A    between atoms: _119  and  _121
REMARK   49  A    between atoms: _121  and  _122
REMARK   50  A    between atoms: _121  and  _124
REMARK   51  A    between atoms: _124  and  _125
REMARK   52  A    between atoms: _131  and  _133
REMARK   53  A    between atoms: _133  and  _134
REMARK   54  A    between atoms: _133  and  _136
REMARK   55  A    between atoms: _139  and  _141
REMARK   56  A    between atoms: _141  and  _142
REMARK   57  A    between atoms: _141  and  _144
REMARK   58  A    between atoms: _144  and  _145
REMARK   59  A    between atoms: _150  and  _151
REMARK   60  A    between atoms: _153  and  _155
REMARK   61  A    between atoms: _155  and  _156
REMARK   62  A    between atoms: _155  and  _158
REMARK   63  A    between atoms: _158  and  _159
REMARK   64  A    between atoms: _159  and  _160
REMARK   65  A    between atoms: _162  and  _164
REMARK   66  A    between atoms: _164  and  _165
REMARK   67  A    between atoms: _164  and  _167
REMARK   68  A    between atoms: _167  and  _168
REMARK   69  A    between atoms: _168  and  _169
REMARK   70  A    between atoms: _172  and  _174
REMARK   71  A    between atoms: _174  and  _175
REMARK   72  A    between atoms: _174  and  _177
REMARK   73  A    between atoms: _177  and  _178
REMARK   74  A    between atoms: _178  and  _179
REMARK   75  A    between atoms: _182  and  _184
REMARK   76  A    between atoms: _184  and  _185
REMARK   77  A    between atoms: _184  and  _187
REMARK   78  A    between atoms: _187  and  _188
REMARK   79  A    between atoms: _193  and  _194
REMARK   80  A    between atoms: _196  and  _198
REMARK   81  A    between atoms: _198  and  _199
REMARK   82  A    between atoms: _198  and  _201
REMARK   83  A    between atoms: _201  and  _202
REMARK   84  A    between atoms: _212  and  _214
REMARK   85  A    between atoms: _214  and  _215
REMARK   86  A    between atoms: _214  and  _217
REMARK   87  A    between atoms: _217  and  _218
REMARK   88  A    between atoms: _218  and  _219
REMARK   89  A    between atoms: _222  and  _224
REMARK   90  A    between atoms: _224  and  _225
REMARK   91  A    between atoms: _224  and  _227
REMARK   92  A    between atoms: _227  and  _228
REMARK   93  A    between atoms: _228  and  _229
REMARK   94  A    between atoms: _229  and  _230
REMARK   95  A    between atoms: _239  and  _241
REMARK   96  A    between atoms: _241  and  _242
REMARK   97  A    between atoms: _241  and  _244
REMARK   98  A    between atoms: _244  and  _245
REMARK   99  A    between atoms: _245  and  _246
REMARK  100  A    between atoms: _249  and  _251
REMARK  101  A    between atoms: _251  and  _252
REMARK  102  A    between atoms: _251  and  _254
REMARK  103  A    between atoms: _254  and  _255
REMARK  104  A    between atoms: _258  and  _260
REMARK  105  A    between atoms: _260  and  _261
REMARK  106  A    between atoms: _260  and  _263
REMARK  107  A    between atoms: _263  and  _264
REMARK  108  A    between atoms: _264  and  _265
REMARK  109  A    between atoms: _270  and  _272
REMARK  110  A    between atoms: _272  and  _273
REMARK  111  A    between atoms: _272  and  _275
REMARK  112  A    between atoms: _275  and  _276
REMARK  113  A    between atoms: _276  and  _277
REMARK  114  A    between atoms: _277  and  _278
REMARK  115  A    between atoms: _278  and  _279
REMARK  116  A    between atoms: _283  and  _285
REMARK  117  A    between atoms: _285  and  _286
REMARK  118  A    between atoms: _289  and  _291
REMARK  119  A    between atoms: _291  and  _292
REMARK  120  A    between atoms: _294  and  _296
REMARK  121  A    between atoms: _296  and  _297
REMARK  122  A    between atoms: _296  and  _299
REMARK  123  A    between atoms: _299  and  _300
REMARK  124  A    between atoms: _305  and  _307
REMARK  125  A    between atoms: _307  and  _308
REMARK  126  A    between atoms: _307  and  _310
REMARK  127  A    between atoms: _310  and  _311
REMARK  128  A    between atoms: _311  and  _312
REMARK  129  A    between atoms: _315  and  _317
REMARK  130  A    between atoms: _317  and  _318
REMARK  131  A    between atoms: _317  and  _320
REMARK  132  A    between atoms: _320  and  _321
REMARK  133  A    between atoms: _323  and  _325
REMARK  134  A    between atoms: _325  and  _326
REMARK  135  A    between atoms: _325  and  _328
REMARK  136  A    between atoms: _328  and  _329
REMARK  137  A    between atoms: _335  and  _337
REMARK  138  A    between atoms: _337  and  _338
REMARK  139  A    between atoms: _337  and  _340
REMARK  140  A    between atoms: _343  and  _345
REMARK  141  A    between atoms: _345  and  _346
REMARK  142  A    between atoms: _345  and  _348
REMARK  143  A    between atoms: _348  and  _349
REMARK  144  A    between atoms: _352  and  _354
REMARK  145  A    between atoms: _354  and  _355
REMARK  146  A    between atoms: _354  and  _357
REMARK  147  A    between atoms: _357  and  _358
REMARK  148  A    between atoms: _361  and  _363
REMARK  149  A    between atoms: _363  and  _364
REMARK  150  A    between atoms: _363  and  _366
REMARK  151  A    between atoms: _366  and  _367
REMARK  152  A    between atoms: _370  and  _372
REMARK  153  A    between atoms: _372  and  _373
REMARK  154  A    between atoms: _372  and  _375
REMARK  155  A    between atoms: _375  and  _376
REMARK  156  A    between atoms: _379  and  _381
REMARK  157  A    between atoms: _381  and  _382
REMARK  158  A    between atoms: _381  and  _384
REMARK  159  A    between atoms: _384  and  _385
REMARK  160  A    between atoms: _390  and  _391
REMARK  161  A    between atoms: _393  and  _395
REMARK  162  A    between atoms: _395  and  _396
REMARK  163  A    between atoms: _395  and  _398
REMARK  164  A    between atoms: _398  and  _399
REMARK  165  A    between atoms: _404  and  _405
REMARK  166  A    between atoms: _407  and  _409
REMARK  167  A    between atoms: _409  and  _410
REMARK  168  A    between atoms: _409  and  _412
REMARK  169  A    between atoms: _412  and  _413
REMARK  170  A    between atoms: _416  and  _418
REMARK  171  A    between atoms: _418  and  _419
REMARK  172  A    between atoms: _418  and  _421
REMARK  173  A    between atoms: _421  and  _422
REMARK  174  A    between atoms: _422  and  _423
REMARK  175  A    between atoms: _428  and  _430
REMARK  176  A    between atoms: _430  and  _431
REMARK  177  A    between atoms: _430  and  _433
REMARK  178  A    between atoms: _436  and  _438
REMARK  179  A    between atoms: _438  and  _439
REMARK  180  A    between atoms: _438  and  _441
REMARK  181  A    between atoms: _441  and  _442
REMARK  182  A    between atoms: _445  and  _447
REMARK  183  A    between atoms: _447  and  _448
REMARK  184  A    between atoms: _447  and  _450
REMARK  185  A    between atoms: _450  and  _451
REMARK  186  A    between atoms: _453  and  _455
REMARK  187  A    between atoms: _455  and  _456
REMARK  188  A    between atoms: _458  and  _460
REMARK  189  A    between atoms: _460  and  _461
REMARK  190  A    between atoms: _460  and  _463
REMARK  191  A    between atoms: _463  and  _464
REMARK  192  A    between atoms: _464  and  _790
REMARK  193  A    between atoms: _465  and  _467
REMARK  194  A    between atoms: _467  and  _468
REMARK  195  A    between atoms: _467  and  _470
REMARK  196  A    between atoms: _470  and  _471
REMARK  197  A    between atoms: _476  and  _477
REMARK  198  A    between atoms: _479  and  _481
REMARK  199  A    between atoms: _481  and  _482
REMARK  200  A    between atoms: _481  and  _484
REMARK  201  A    between atoms: _484  and  _485
REMARK  202  A    between atoms: _485  and  _486
REMARK  203  A    between atoms: _491  and  _493
REMARK  204  A    between atoms: _493  and  _494
REMARK  205  A    between atoms: _493  and  _496
REMARK  206  A    between atoms: _496  and  _497
REMARK  207  A    between atoms: _497  and  _498
REMARK  208  A    between atoms: _503  and  _505
REMARK  209  A    between atoms: _505  and  _506
REMARK  210  A    between atoms: _505  and  _508
REMARK  211  A    between atoms: _508  and  _509
REMARK  212  A    between atoms: _514  and  _515
REMARK  213  A    between atoms: _517  and  _519
REMARK  214  A    between atoms: _519  and  _520
REMARK  215  A    between atoms: _523  and  _525
REMARK  216  A    between atoms: _525  and  _526
REMARK  217  A    between atoms: _525  and  _528
REMARK  218  A    between atoms: _528  and  _529
REMARK  219  A    between atoms: _534  and  _535
REMARK  220  A    between atoms: _537  and  _539
REMARK  221  A    between atoms: _539  and  _540
REMARK  222  A    between atoms: _539  and  _542
REMARK  223  A    between atoms: _542  and  _543
REMARK  224  A    between atoms: _548  and  _549
REMARK  225  A    between atoms: _551  and  _553
REMARK  226  A    between atoms: _553  and  _554
REMARK  227  A    between atoms: _553  and  _556
REMARK  228  A    between atoms: _556  and  _557
REMARK  229  A    between atoms: _560  and  _562
REMARK  230  A    between atoms: _562  and  _563
REMARK  231  A    between atoms: _562  and  _565
REMARK  232  A    between atoms: _565  and  _566
REMARK  233  A    between atoms: _576  and  _578
REMARK  234  A    between atoms: _578  and  _579
REMARK  235  A    between atoms: _582  and  _584
REMARK  236  A    between atoms: _584  and  _585
REMARK  237  A    between atoms: _588  and  _590
REMARK  238  A    between atoms: _590  and  _591
REMARK  239  A    between atoms: _590  and  _593
REMARK  240  A    between atoms: _593  and  _594
REMARK  241  A    between atoms: _597  and  _599
REMARK  242  A    between atoms: _599  and  _600
REMARK  243  A    between atoms: _599  and  _602
REMARK  244  A    between atoms: _602  and  _603
REMARK  245  A    between atoms: _606  and  _608
REMARK  246  A    between atoms: _608  and  _609
REMARK  247  A    between atoms: _608  and  _611
REMARK  248  A    between atoms: _611  and  _612
REMARK  249  A    between atoms: _615  and  _617
REMARK  250  A    between atoms: _617  and  _618
REMARK  251  A    between atoms: _617  and  _620
REMARK  252  A    between atoms: _620  and  _621
REMARK  253  A    between atoms: _621  and  _622
REMARK  254  A    between atoms: _622  and  _623
REMARK  255  A    between atoms: _623  and  _624
REMARK  256  A    between atoms: _628  and  _630
REMARK  257  A    between atoms: _630  and  _631
REMARK  258  A    between atoms: _630  and  _633
REMARK  259  A    between atoms: _633  and  _634
REMARK  260  A    between atoms: _639  and  _641
REMARK  261  A    between atoms: _641  and  _642
REMARK  262  A    between atoms: _641  and  _644
REMARK  263  A    between atoms: _644  and  _645
REMARK  264  A    between atoms: _645  and  _646
REMARK  265  A    between atoms: _646  and  _647
REMARK  266  A    between atoms: _647  and  _648
REMARK  267  A    between atoms: _652  and  _654
REMARK  268  A    between atoms: _654  and  _655
REMARK  269  A    between atoms: _654  and  _657
REMARK  270  A    between atoms: _657  and  _658
REMARK  271  A    between atoms: _668  and  _670
REMARK  272  A    between atoms: _670  and  _671
REMARK  273  A    between atoms: _674  and  _676
REMARK  274  A    between atoms: _676  and  _677
REMARK  275  A    between atoms: _679  and  _681
REMARK  276  A    between atoms: _681  and  _682
REMARK  277  A    between atoms: _685  and  _687
REMARK  278  A    between atoms: _687  and  _688
REMARK  279  A    between atoms: _691  and  _693
REMARK  280  A    between atoms: _693  and  _694
REMARK  281  A    between atoms: _693  and  _696
REMARK  282  A    between atoms: _696  and  _697
REMARK  283  A    between atoms: _697  and  _698
REMARK  284  A    between atoms: _701  and  _703
REMARK  285  A    between atoms: _703  and  _704
REMARK  286  A    between atoms: _703  and  _706
REMARK  287  A    between atoms: _706  and  _707
REMARK  288  A    between atoms: _712  and  _713
REMARK  289  A    between atoms: _715  and  _717
REMARK  290  A    between atoms: _717  and  _718
REMARK  291  A    between atoms: _717  and  _720
REMARK  292  A    between atoms: _720  and  _721
REMARK  293  A    between atoms: _726  and  _727
REMARK  294  A    between atoms: _729  and  _731
REMARK  295  A    between atoms: _731  and  _732
REMARK  296  A    between atoms: _731  and  _734
REMARK  297  A    between atoms: _734  and  _735
REMARK  298  A    between atoms: _735  and  _736
REMARK  299  A    between atoms: _736  and  _737
REMARK  300  A    between atoms: _746  and  _748
REMARK  301  A    between atoms: _748  and  _749
REMARK  302  A    between atoms: _752  and  _754
REMARK  303  A    between atoms: _754  and  _755
REMARK  304  A    between atoms: _754  and  _757
REMARK  305  A    between atoms: _757  and  _758
REMARK  306  A    between atoms: _763  and  _764
REMARK  307  A    between atoms: _766  and  _768
REMARK  308  A    between atoms: _768  and  _769
REMARK  309  A    between atoms: _768  and  _771
REMARK  310  A    between atoms: _771  and  _772
REMARK  311  A    between atoms: _775  and  _777
REMARK  312  A    between atoms: _777  and  _778
REMARK  313  A    between atoms: _777  and  _780
REMARK  314  A    between atoms: _780  and  _781
REMARK  315  A    between atoms: _784  and  _786
REMARK  316  A    between atoms: _786  and  _787
REMARK  317  A    between atoms: _786  and  _789
REMARK  318  A    between atoms: _789  and  _790
REMARK  319  A    between atoms: _791  and  _793
REMARK  320  A    between atoms: _793  and  _794
REMARK  321  A    between atoms: _793  and  _796
REMARK  322  A    between atoms: _799  and  _801
REMARK  323  A    between atoms: _801  and  _802
REMARK  324  A    between atoms: _801  and  _804
REMARK  325  A    between atoms: _804  and  _805
REMARK  326  A    between atoms: _805  and  _806
REMARK  327  A    between atoms: _809  and  _811
REMARK  328  A    between atoms: _811  and  _812
REMARK  329  A    between atoms: _811  and  _814
REMARK  330  A    between atoms: _814  and  _815
REMARK  331  A    between atoms: _825  and  _827
REMARK  332  A    between atoms: _827  and  _828
REMARK  333  A    between atoms: _827  and  _830
REMARK  334  A    between atoms: _830  and  _831
REMARK  335  A    between atoms: _834  and  _836
REMARK  336  A    between atoms: _836  and  _837
REMARK  337  A    between atoms: _836  and  _839
REMARK  338  A    between atoms: _839  and  _840
REMARK  339  A    between atoms: _840  and  _841
REMARK  340  A    between atoms: _841  and  _842
REMARK  341  A    between atoms: _851  and  _853
REMARK  342  A    between atoms: _853  and  _854
REMARK  343  A    between atoms: _853  and  _856
REMARK  344  A    between atoms: _856  and  _857
REMARK  345  A    between atoms: _862  and  _863
REMARK                            x       y       z     vdW  Elec       q    Type
REMARK                         _______ _______ _______ _____ _____    ______ ____
ROOT
ATOM      1  CA  ASN A   2      36.711  57.866  -2.418  0.00  0.00    +0.158 C 
ENDROOT
BRANCH   1   3
ATOM      2  C   GLY A   1      35.352  59.778  -1.783  0.00  0.00    +0.240 C 
ATOM      3  N   ASN A   2      36.289  58.892  -1.461  0.00  0.00    -0.297 N 
ATOM      4  H   ASN A   2      36.728  58.927  -0.519  0.00  0.00    +0.150 HD
ATOM      5  O   GLY A   1      34.816  59.808  -2.895  0.00  0.00    -0.274 OA
BRANCH   2   6
ATOM      6  CA  GLY A   1      34.979  60.776  -0.694  0.00  0.00    +0.169 C 
BRANCH   6   7
ATOM      7  N   GLY A   1      34.931  60.075   0.580  0.00  0.00    -0.236 NA
ATOM      8  H   GLY A   1      35.690  60.210   1.278  0.00  0.00    +0.142 HD
ENDBRANCH   6   7
ENDBRANCH   2   6
ENDBRANCH   1   3
BRANCH   1   9
ATOM      9  C   ASN A   2      35.517  56.966  -2.729  0.00  0.00    +0.241 C 
ATOM     10  N   GLU A   3      34.739  56.644  -1.701  0.00  0.00    -0.298 N 
ATOM     11  H   GLU A   3      34.975  57.007  -0.755  0.00  0.00    +0.150 HD
ATOM     12  O   ASN A   2      35.302  56.579  -3.876  0.00  0.00    -0.273 OA
BRANCH  10  13
ATOM     13  CA  GLU A   3      33.563  55.796  -1.861  0.00  0.00    +0.137 C 
BRANCH  13  14
ATOM     14  C   GLU A   3      32.588  56.382  -2.879  0.00  0.00    +0.227 C 
ATOM     15  O   GLU A   3      32.078  55.679  -3.761  0.00  0.00    -0.286 OA
ENDBRANCH  13  14
BRANCH  13  16
ATOM     16  CB  GLU A   3      32.849  55.618  -0.523  0.00  0.00    +0.039 C 
BRANCH  16  17
ATOM     17  CG  GLU A   3      31.597  54.747  -0.601  0.00  0.00    +0.116 C 
BRANCH  17  18
ATOM     18  CD  GLU A   3      30.865  54.632   0.723  0.00  0.00    +0.365 C 
ATOM     19  OE2 GLU A   3      31.395  55.095   1.755  0.00  0.00    -0.246 OA
ATOM     20  OE1 GLU A   3      29.750  54.066   0.735  0.00  0.00    -0.246 OA
ENDBRANCH  17  18
ENDBRANCH  16  17
ENDBRANCH  13  16
ENDBRANCH  10  13
ENDBRANCH   1   9
BRANCH   1  21
ATOM     21  CB  ASN A   2      37.859  57.016  -1.845  0.00  0.00    +0.114 C 
BRANCH  21  22
ATOM     22  CG  ASN A   2      39.210  57.710  -1.930  0.00  0.00    +0.222 C 
ATOM     23  ND2 ASN A   2      40.114  57.366  -1.016  0.00  0.00    -0.329 N 
ATOM     24 HD21 ASN A   2      39.869  56.679  -0.275  0.00  0.00    +0.145 HD
ATOM     25 HD22 ASN A   2      41.066  57.785  -1.043  0.00  0.00    +0.145 HD
ATOM     26  OD1 ASN A   2      39.450  58.521  -2.830  0.00  0.00    -0.275 OA
ENDBRANCH  21  22
ENDBRANCH   1  21
TORSDOF 11
REMARK  Name = ../refined-set-2016/1fzj/1fzj_pocket.pdb
REMARK  345 active torsions:
REMARK  status: ('A' for Active; 'I' for Inactive)
REMARK    1  A    between atoms: _1  and  _3
REMARK    2  A    between atoms: _3  and  _4
REMARK    3  A    between atoms: _3  and  _6
REMARK    4  A    between atoms: _6  and  _7
REMARK    5  A    between atoms: _10  and  _12
REMARK    6  A    between atoms: _12  and  _13
REMARK    7  A    between atoms: _12  and  _15
REMARK    8  A    between atoms: _15  and  _16
REMARK    9  A    between atoms: _16  and  _17
REMARK   10  A    between atoms: _17  and  _18
REMARK   11  A    between atoms: _27  and  _29
REMARK   12  A    between atoms: _29  and  _30
REMARK   13  A    between atoms: _29  and  _32
REMARK   14  A    between atoms: _32  and  _33
REMARK   15  A    between atoms: _38  and  _39
REMARK   16  A    between atoms: _41  and  _43
REMARK   17  A    between atoms: _43  and  _44
REMARK   18  A    between atoms: _43  and  _46
REMARK   19  A    between atoms: _46  and  _47
REMARK   20  A    between atoms: _53  and  _55
REMARK   21  A    between atoms: _55  and  _56
REMARK   22  A    between atoms: _55  and  _58
REMARK   23  A    between atoms: _61  and  _63
REMARK   24  A    between atoms: _63  and  _64
REMARK   25  A    between atoms: _63  and  _66
REMARK   26  A    between atoms: _66  and  _67
REMARK   27  A    between atoms: _70  and  _72
REMARK   28  A    between atoms: _72  and  _73
REMARK   29  A    between atoms: _72  and  _75
REMARK   30  A    between atoms: _75  and  _76
REMARK   31  A    between atoms: _81  and  _82
REMARK   32  A    between atoms: _84  and  _86
REMARK   33  A    between atoms: _86  and  _87
REMARK   34  A    between atoms: _86  and  _89
REMARK   35  A    between atoms: _89  and  _90
REMARK   36  A    between atoms: _90  and  _91
REMARK   37  A    between atoms: _93  and  _95
REMARK   38  A    between atoms: _95  and  _96
REMARK   39  A    between atoms: _95  and  _98
REMARK   40  A    between atoms: _98  and  _99
REMARK   41  A    between atoms: _99  and  _100
REMARK   42  A    between atoms: _103  and  _105
REMARK   43  A    between atoms: _105  and  _106
REMARK   44  A    between atoms: _105  and  _108
REMARK   45  A    between atoms: _111  and  _113
REMARK   46  A    between atoms: _113  and  _114
REMARK   47  A    between atoms: _113  and  _116
REMARK   48  A    between atoms: _119  and  _121
REMARK   49  A    between atoms: _121  and  _122
REMARK   50  A    between atoms: _121  and  _124
REMARK   51  A    between atoms: _124  and  _125
REMARK   52  A    between atoms: _131  and  _133
REMARK   53  A    between atoms: _133  and  _134
REMARK   54  A    between atoms: _133  and  _136
REMARK   55  A    between atoms: _139  and  _141
REMARK   56  A    between atoms: _141  and  _142
REMARK   57  A    between atoms: _141  and  _144
REMARK   58  A    between atoms: _144  and  _145
REMARK   59  A    between atoms: _150  and  _151
REMARK   60  A    between atoms: _153  and  _155
REMARK   61  A    between atoms: _155  and  _156
REMARK   62  A    between atoms: _155  and  _158
REMARK   63  A    between atoms: _158  and  _159
REMARK   64  A    between atoms: _159  and  _160
REMARK   65  A    between atoms: _162  and  _164
REMARK   66  A    between atoms: _164  and  _165
REMARK   67  A    between atoms: _164  and  _167
REMARK   68  A    between atoms: _167  and  _168
REMARK   69  A    between atoms: _168  and  _169
REMARK   70  A    between atoms: _172  and  _174
REMARK   71  A    between atoms: _174  and  _175
REMARK   72  A    between atoms: _174  and  _177
REMARK   73  A    between atoms: _177  and  _178
REMARK   74  A    between atoms: _178  and  _179
REMARK   75  A    between atoms: _182  and  _184
REMARK   76  A    between atoms: _184  and  _185
REMARK   77  A    between atoms: _184  and  _187
REMARK   78  A    between atoms: _187  and  _188
REMARK   79  A    between atoms: _193  and  _194
REMARK   80  A    between atoms: _196  and  _198
REMARK   81  A    between atoms: _198  and  _199
REMARK   82  A    between atoms: _198  and  _201
REMARK   83  A    between atoms: _201  and  _202
REMARK   84  A    between atoms: _212  and  _214
REMARK   85  A    between atoms: _214  and  _215
REMARK   86  A    between atoms: _214  and  _217
REMARK   87  A    between atoms: _217  and  _218
REMARK   88  A    between atoms: _218  and  _219
REMARK   89  A    between atoms: _222  and  _224
REMARK   90  A    between atoms: _224  and  _225
REMARK   91  A    between atoms: _224  and  _227
REMARK   92  A    between atoms: _227  and  _228
REMARK   93  A    between atoms: _228  and  _229
REMARK   94  A    between atoms: _229  and  _230
REMARK   95  A    between atoms: _239  and  _241
REMARK   96  A    between atoms: _241  and  _242
REMARK   97  A    between atoms: _241  and  _244
REMARK   98  A    between atoms: _244  and  _245
REMARK   99  A    between atoms: _245  and  _246
REMARK  100  A    between atoms: _249  and  _251
REMARK  101  A    between atoms: _251  and  _252
REMARK  102  A    between atoms: _251  and  _254
REMARK  103  A    between atoms: _254  and  _255
REMARK  104  A    between atoms: _258  and  _260
REMARK  105  A    between atoms: _260  and  _261
REMARK  106  A    between atoms: _260  and  _263
REMARK  107  A    between atoms: _263  and  _264
REMARK  108  A    between atoms: _264  and  _265
REMARK  109  A    between atoms: _270  and  _272
REMARK  110  A    between atoms: _272  and  _273
REMARK  111  A    between atoms: _272  and  _275
REMARK  112  A    between atoms: _275  and  _276
REMARK  113  A    between atoms: _276  and  _277
REMARK  114  A    between atoms: _277  and  _278
REMARK  115  A    between atoms: _278  and  _279
REMARK  116  A    between atoms: _283  and  _285
REMARK  117  A    between atoms: _285  and  _286
REMARK  118  A    between atoms: _289  and  _291
REMARK  119  A    between atoms: _291  and  _292
REMARK  120  A    between atoms: _294  and  _296
REMARK  121  A    between atoms: _296  and  _297
REMARK  122  A    between atoms: _296  and  _299
REMARK  123  A    between atoms: _299  and  _300
REMARK  124  A    between atoms: _305  and  _307
REMARK  125  A    between atoms: _307  and  _308
REMARK  126  A    between atoms: _307  and  _310
REMARK  127  A    between atoms: _310  and  _311
REMARK  128  A    between atoms: _311  and  _312
REMARK  129  A    between atoms: _315  and  _317
REMARK  130  A    between atoms: _317  and  _318
REMARK  131  A    between atoms: _317  and  _320
REMARK  132  A    between atoms: _320  and  _321
REMARK  133  A    between atoms: _323  and  _325
REMARK  134  A    between atoms: _325  and  _326
REMARK  135  A    between atoms: _325  and  _328
REMARK  136  A    between atoms: _328  and  _329
REMARK  137  A    between atoms: _335  and  _337
REMARK  138  A    between atoms: _337  and  _338
REMARK  139  A    between atoms: _337  and  _340
REMARK  140  A    between atoms: _343  and  _345
REMARK  141  A    between atoms: _345  and  _346
REMARK  142  A    between atoms: _345  and  _348
REMARK  143  A    between atoms: _348  and  _349
REMARK  144  A    between atoms: _352  and  _354
REMARK  145  A    between atoms: _354  and  _355
REMARK  146  A    between atoms: _354  and  _357
REMARK  147  A    between atoms: _357  and  _358
REMARK  148  A    between atoms: _361  and  _363
REMARK  149  A    between atoms: _363  and  _364
REMARK  150  A    between atoms: _363  and  _366
REMARK  151  A    between atoms: _366  and  _367
REMARK  152  A    between atoms: _370  and  _372
REMARK  153  A    between atoms: _372  and  _373
REMARK  154  A    between atoms: _372  and  _375
REMARK  155  A    between atoms: _375  and  _376
REMARK  156  A    between atoms: _379  and  _381
REMARK  157  A    between atoms: _381  and  _382
REMARK  158  A    between atoms: _381  and  _384
REMARK  159  A    between atoms: _384  and  _385
REMARK  160  A    between atoms: _390  and  _391
REMARK  161  A    between atoms: _393  and  _395
REMARK  162  A    between atoms: _395  and  _396
REMARK  163  A    between atoms: _395  and  _398
REMARK  164  A    between atoms: _398  and  _399
REMARK  165  A    between atoms: _404  and  _405
REMARK  166  A    between atoms: _407  and  _409
REMARK  167  A    between atoms: _409  and  _410
REMARK  168  A    between atoms: _409  and  _412
REMARK  169  A    between atoms: _412  and  _413
REMARK  170  A    between atoms: _416  and  _418
REMARK  171  A    between atoms: _418  and  _419
REMARK  172  A    between atoms: _418  and  _421
REMARK  173  A    between atoms: _421  and  _422
REMARK  174  A    between atoms: _422  and  _423
REMARK  175  A    between atoms: _428  and  _430
REMARK  176  A    between atoms: _430  and  _431
REMARK  177  A    between atoms: _430  and  _433
REMARK  178  A    between atoms: _436  and  _438
REMARK  179  A    between atoms: _438  and  _439
REMARK  180  A    between atoms: _438  and  _441
REMARK  181  A    between atoms: _441  and  _442
REMARK  182  A    between atoms: _445  and  _447
REMARK  183  A    between atoms: _447  and  _448
REMARK  184  A    between atoms: _447  and  _450
REMARK  185  A    between atoms: _450  and  _451
REMARK  186  A    between atoms: _453  and  _455
REMARK  187  A    between atoms: _455  and  _456
REMARK  188  A    between atoms: _458  and  _460
REMARK  189  A    between atoms: _460  and  _461
REMARK  190  A    between atoms: _460  and  _463
REMARK  191  A    between atoms: _463  and  _464
REMARK  192  A    between atoms: _464  and  _790
REMARK  193  A    between atoms: _465  and  _467
REMARK  194  A    between atoms: _467  and  _468
REMARK  195  A    between atoms: _467  and  _470
REMARK  196  A    between atoms: _470  and  _471
REMARK  197  A    between atoms: _476  and  _477
REMARK  198  A    between atoms: _479  and  _481
REMARK  199  A    between atoms: _481  and  _482
REMARK  200  A    between atoms: _481  and  _484
REMARK  201  A    between atoms: _484  and  _485
REMARK  202  A    between atoms: _485  and  _486
REMARK  203  A    between atoms: _491  and  _493
REMARK  204  A    between atoms: _493  and  _494
REMARK  205  A    between atoms: _493  and  _496
REMARK  206  A    between atoms: _496  and  _497
REMARK  207  A    between atoms: _497  and  _498
REMARK  208  A    between atoms: _503  and  _505
REMARK  209  A    between atoms: _505  and  _506
REMARK  210  A    between atoms: _505  and  _508
REMARK  211  A    between atoms: _508  and  _509
REMARK  212  A    between atoms: _514  and  _515
REMARK  213  A    between atoms: _517  and  _519
REMARK  214  A    between atoms: _519  and  _520
REMARK  215  A    between atoms: _523  and  _525
REMARK  216  A    between atoms: _525  and  _526
REMARK  217  A    between atoms: _525  and  _528
REMARK  218  A    between atoms: _528  and  _529
REMARK  219  A    between atoms: _534  and  _535
REMARK  220  A    between atoms: _537  and  _539
REMARK  221  A    between atoms: _539  and  _540
REMARK  222  A    between atoms: _539  and  _542
REMARK  223  A    between atoms: _542  and  _543
REMARK  224  A    between atoms: _548  and  _549
REMARK  225  A    between atoms: _551  and  _553
REMARK  226  A    between atoms: _553  and  _554
REMARK  227  A    between atoms: _553  and  _556
REMARK  228  A    between atoms: _556  and  _557
REMARK  229  A    between atoms: _560  and  _562
REMARK  230  A    between atoms: _562  and  _563
REMARK  231  A    between atoms: _562  and  _565
REMARK  232  A    between atoms: _565  and  _566
REMARK  233  A    between atoms: _576  and  _578
REMARK  234  A    between atoms: _578  and  _579
REMARK  235  A    between atoms: _582  and  _584
REMARK  236  A    between atoms: _584  and  _585
REMARK  237  A    between atoms: _588  and  _590
REMARK  238  A    between atoms: _590  and  _591
REMARK  239  A    between atoms: _590  and  _593
REMARK  240  A    between atoms: _593  and  _594
REMARK  241  A    between atoms: _597  and  _599
REMARK  242  A    between atoms: _599  and  _600
REMARK  243  A    between atoms: _599  and  _602
REMARK  244  A    between atoms: _602  and  _603
REMARK  245  A    between atoms: _606  and  _608
REMARK  246  A    between atoms: _608  and  _609
REMARK  247  A    between atoms: _608  and  _611
REMARK  248  A    between atoms: _611  and  _612
REMARK  249  A    between atoms: _615  and  _617
REMARK  250  A    between atoms: _617  and  _618
REMARK  251  A    between atoms: _617  and  _620
REMARK  252  A    between atoms: _620  and  _621
REMARK  253  A    between atoms: _621  and  _622
REMARK  254  A    between atoms: _622  and  _623
REMARK  255  A    between atoms: _623  and  _624
REMARK  256  A    between atoms: _628  and  _630
REMARK  257  A    between atoms: _630  and  _631
REMARK  258  A    between atoms: _630  and  _633
REMARK  259  A    between atoms: _633  and  _634
REMARK  260  A    between atoms: _639  and  _641
REMARK  261  A    between atoms: _641  and  _642
REMARK  262  A    between atoms: _641  and  _644
REMARK  263  A    between atoms: _644  and  _645
REMARK  264  A    between atoms: _645  and  _646
REMARK  265  A    between atoms: _646  and  _647
REMARK  266  A    between atoms: _647  and  _648
REMARK  267  A    between atoms: _652  and  _654
REMARK  268  A    between atoms: _654  and  _655
REMARK  269  A    between atoms: _654  and  _657
REMARK  270  A    between atoms: _657  and  _658
REMARK  271  A    between atoms: _668  and  _670
REMARK  272  A    between atoms: _670  and  _671
REMARK  273  A    between atoms: _674  and  _676
REMARK  274  A    between atoms: _676  and  _677
REMARK  275  A    between atoms: _679  and  _681
REMARK  276  A    between atoms: _681  and  _682
REMARK  277  A    between atoms: _685  and  _687
REMARK  278  A    between atoms: _687  and  _688
REMARK  279  A    between atoms: _691  and  _693
REMARK  280  A    between atoms: _693  and  _694
REMARK  281  A    between atoms: _693  and  _696
REMARK  282  A    between atoms: _696  and  _697
REMARK  283  A    between atoms: _697  and  _698
REMARK  284  A    between atoms: _701  and  _703
REMARK  285  A    between atoms: _703  and  _704
REMARK  286  A    between atoms: _703  and  _706
REMARK  287  A    between atoms: _706  and  _707
REMARK  288  A    between atoms: _712  and  _713
REMARK  289  A    between atoms: _715  and  _717
REMARK  290  A    between atoms: _717  and  _718
REMARK  291  A    between atoms: _717  and  _720
REMARK  292  A    between atoms: _720  and  _721
REMARK  293  A    between atoms: _726  and  _727
REMARK  294  A    between atoms: _729  and  _731
REMARK  295  A    between atoms: _731  and  _732
REMARK  296  A    between atoms: _731  and  _734
REMARK  297  A    between atoms: _734  and  _735
REMARK  298  A    between atoms: _735  and  _736
REMARK  299  A    between atoms: _736  and  _737
REMARK  300  A    between atoms: _746  and  _748
REMARK  301  A    between atoms: _748  and  _749
REMARK  302  A    between atoms: _752  and  _754
REMARK  303  A    between atoms: _754  and  _755
REMARK  304  A    between atoms: _754  and  _757
REMARK  305  A    between atoms: _757  and  _758
REMARK  306  A    between atoms: _763  and  _764
REMARK  307  A    between atoms: _766  and  _768
REMARK  308  A    between atoms: _768  and  _769
REMARK  309  A    between atoms: _768  and  _771
REMARK  310  A    between atoms: _771  and  _772
REMARK  311  A    between atoms: _775  and  _777
REMARK  312  A    between atoms: _777  and  _778
REMARK  313  A    between atoms: _777  and  _780
REMARK  314  A    between atoms: _780  and  _781
REMARK  315  A    between atoms: _784  and  _786
REMARK  316  A    between atoms: _786  and  _787
REMARK  317  A    between atoms: _786  and  _789
REMARK  318  A    between atoms: _789  and  _790
REMARK  319  A    between atoms: _791  and  _793
REMARK  320  A    between atoms: _793  and  _794
REMARK  321  A    between atoms: _793  and  _796
REMARK  322  A    between atoms: _799  and  _801
REMARK  323  A    between atoms: _801  and  _802
REMARK  324  A    between atoms: _801  and  _804
REMARK  325  A    between atoms: _804  and  _805
REMARK  326  A    between atoms: _805  and  _806
REMARK  327  A    between atoms: _809  and  _811
REMARK  328  A    between atoms: _811  and  _812
REMARK  329  A    between atoms: _811  and  _814
REMARK  330  A    between atoms: _814  and  _815
REMARK  331  A    between atoms: _825  and  _827
REMARK  332  A    between atoms: _827  and  _828
REMARK  333  A    between atoms: _827  and  _830
REMARK  334  A    between atoms: _830  and  _831
REMARK  335  A    between atoms: _834  and  _836
REMARK  336  A    between atoms: _836  and  _837
REMARK  337  A    between atoms: _836  and  _839
REMARK  338  A    between atoms: _839  and  _840
REMARK  339  A    between atoms: _840  and  _841
REMARK  340  A    between atoms: _841  and  _842
REMARK  341  A    between atoms: _851  and  _853
REMARK  342  A    between atoms: _853  and  _854
REMARK  343  A    between atoms: _853  and  _856
REMARK  344  A    between atoms: _856  and  _857
REMARK  345  A    between atoms: _862  and  _863
REMARK                            x       y       z     vdW  Elec       q    Type
REMARK                         _______ _______ _______ _____ _____    ______ ____
ROOT
ATOM      1  C   SER A   1      33.829  57.331  -7.255  0.00  0.00    +0.241 C 
ATOM      2  N   PHE A   2      33.972  56.258  -6.480  0.00  0.00    -0.298 N 
ATOM      3  H   PHE A   2      34.114  56.387  -5.458  0.00  0.00    +0.150 HD
ATOM      4  O   SER A   1      33.661  57.262  -8.472  0.00  0.00    -0.274 OA
ENDROOT
BRANCH   1   5
ATOM      5  CA  SER A   1      33.883  58.690  -6.552  0.00  0.00    +0.174 C 
BRANCH   5   6
ATOM      6  N   SER A   1      33.242  58.625  -5.245  0.00  0.00    -0.236 NA
ATOM      7  H   SER A   1      33.817  58.783  -4.393  0.00  0.00    +0.142 HD
ENDBRANCH   5   6
BRANCH   5   8
ATOM      8  CB  SER A   1      35.337  59.137  -6.397  0.00  0.00    +0.163 C 
BRANCH   8   9
ATOM      9  OG  SER A   1      35.999  59.193  -7.647  0.00  0.00    -0.380 OA
ATOM     10  H   SER A   1      35.990  58.295  -8.065  0.00  0.00    +0.211 HD
ENDBRANCH   8   9
ENDBRANCH   5   8
ENDBRANCH   1   5
BRANCH   2  11
ATOM     11  CA  PHE A   2      33.935  54.897  -7.032  0.00  0.00    +0.141 C 
BRANCH  11  12
ATOM     12  C   PHE A   2      32.518  54.514  -7.412  0.00  0.00    +0.227 C 
ATOM     13  O   PHE A   2      32.305  53.775  -8.376  0.00  0.00    -0.286 OA
ENDBRANCH  11  12
BRANCH  11  14
ATOM     14  CB  PHE A   2      34.535  53.873  -6.050  0.00  0.00    +0.054 C 
BRANCH  14  15
ATOM     15  CG  PHE A   2      36.018  53.726  -6.191  0.00  0.00    -0.020 A 
ATOM     16  CD2 PHE A   2      36.886  54.493  -5.425  0.00  0.00    -0.004 A 
ATOM     17  CE2 PHE A   2      38.262  54.440  -5.628  0.00  0.00    -0.000 A 
ATOM     18  CZ  PHE A   2      38.786  53.607  -6.613  0.00  0.00    -0.000 A 
ATOM     19  CE1 PHE A   2      37.924  52.828  -7.385  0.00  0.00    -0.000 A 
ATOM     20  CD1 PHE A   2      36.553  52.887  -7.169  0.00  0.00    -0.004 A 
ENDBRANCH  14  15
ENDBRANCH  11  14
ENDBRANCH   2  11
TORSDOF 8
REMARK  Name = ../refined-set-2016/1fzj/1fzj_pocket.pdb
REMARK  345 active torsions:
REMARK  status: ('A' for Active; 'I' for Inactive)
REMARK    1  A    between atoms: _1  and  _3
REMARK    2  A    between atoms: _3  and  _4
REMARK    3  A    between atoms: _3  and  _6
REMARK    4  A    between atoms: _6  and  _7
REMARK    5  A    between atoms: _10  and  _12
REMARK    6  A    between atoms: _12  and  _13
REMARK    7  A    between atoms: _12  and  _15
REMARK    8  A    between atoms: _15  and  _16
REMARK    9  A    between atoms: _16  and  _17
REMARK   10  A    between atoms: _17  and  _18
REMARK   11  A    between atoms: _27  and  _29
REMARK   12  A    between atoms: _29  and  _30
REMARK   13  A    between atoms: _29  and  _32
REMARK   14  A    between atoms: _32  and  _33
REMARK   15  A    between atoms: _38  and  _39
REMARK   16  A    between atoms: _41  and  _43
REMARK   17  A    between atoms: _43  and  _44
REMARK   18  A    between atoms: _43  and  _46
REMARK   19  A    between atoms: _46  and  _47
REMARK   20  A    between atoms: _53  and  _55
REMARK   21  A    between atoms: _55  and  _56
REMARK   22  A    between atoms: _55  and  _58
REMARK   23  A    between atoms: _61  and  _63
REMARK   24  A    between atoms: _63  and  _64
REMARK   25  A    between atoms: _63  and  _66
REMARK   26  A    between atoms: _66  and  _67
REMARK   27  A    between atoms: _70  and  _72
REMARK   28  A    between atoms: _72  and  _73
REMARK   29  A    between atoms: _72  and  _75
REMARK   30  A    between atoms: _75  and  _76
REMARK   31  A    between atoms: _81  and  _82
REMARK   32  A    between atoms: _84  and  _86
REMARK   33  A    between atoms: _86  and  _87
REMARK   34  A    between atoms: _86  and  _89
REMARK   35  A    between atoms: _89  and  _90
REMARK   36  A    between atoms: _90  and  _91
REMARK   37  A    between atoms: _93  and  _95
REMARK   38  A    between atoms: _95  and  _96
REMARK   39  A    between atoms: _95  and  _98
REMARK   40  A    between atoms: _98  and  _99
REMARK   41  A    between atoms: _99  and  _100
REMARK   42  A    between atoms: _103  and  _105
REMARK   43  A    between atoms: _105  and  _106
REMARK   44  A    between atoms: _105  and  _108
REMARK   45  A    between atoms: _111  and  _113
REMARK   46  A    between atoms: _113  and  _114
REMARK   47  A    between atoms: _113  and  _116
REMARK   48  A    between atoms: _119  and  _121
REMARK   49  A    between atoms: _121  and  _122
REMARK   50  A    between atoms: _121  and  _124
REMARK   51  A    between atoms: _124  and  _125
REMARK   52  A    between atoms: _131  and  _133
REMARK   53  A    between atoms: _133  and  _134
REMARK   54  A    between atoms: _133  and  _136
REMARK   55  A    between atoms: _139  and  _141
REMARK   56  A    between atoms: _141  and  _142
REMARK   57  A    between atoms: _141  and  _144
REMARK   58  A    between atoms: _144  and  _145
REMARK   59  A    between atoms: _150  and  _151
REMARK   60  A    between atoms: _153  and  _155
REMARK   61  A    between atoms: _155  and  _156
REMARK   62  A    between atoms: _155  and  _158
REMARK   63  A    between atoms: _158  and  _159
REMARK   64  A    between atoms: _159  and  _160
REMARK   65  A    between atoms: _162  and  _164
REMARK   66  A    between atoms: _164  and  _165
REMARK   67  A    between atoms: _164  and  _167
REMARK   68  A    between atoms: _167  and  _168
REMARK   69  A    between atoms: _168  and  _169
REMARK   70  A    between atoms: _172  and  _174
REMARK   71  A    between atoms: _174  and  _175
REMARK   72  A    between atoms: _174  and  _177
REMARK   73  A    between atoms: _177  and  _178
REMARK   74  A    between atoms: _178  and  _179
REMARK   75  A    between atoms: _182  and  _184
REMARK   76  A    between atoms: _184  and  _185
REMARK   77  A    between atoms: _184  and  _187
REMARK   78  A    between atoms: _187  and  _188
REMARK   79  A    between atoms: _193  and  _194
REMARK   80  A    between atoms: _196  and  _198
REMARK   81  A    between atoms: _198  and  _199
REMARK   82  A    between atoms: _198  and  _201
REMARK   83  A    between atoms: _201  and  _202
REMARK   84  A    between atoms: _212  and  _214
REMARK   85  A    between atoms: _214  and  _215
REMARK   86  A    between atoms: _214  and  _217
REMARK   87  A    between atoms: _217  and  _218
REMARK   88  A    between atoms: _218  and  _219
REMARK   89  A    between atoms: _222  and  _224
REMARK   90  A    between atoms: _224  and  _225
REMARK   91  A    between atoms: _224  and  _227
REMARK   92  A    between atoms: _227  and  _228
REMARK   93  A    between atoms: _228  and  _229
REMARK   94  A    between atoms: _229  and  _230
REMARK   95  A    between atoms: _239  and  _241
REMARK   96  A    between atoms: _241  and  _242
REMARK   97  A    between atoms: _241  and  _244
REMARK   98  A    between atoms: _244  and  _245
REMARK   99  A    between atoms: _245  and  _246
REMARK  100  A    between atoms: _249  and  _251
REMARK  101  A    between atoms: _251  and  _252
REMARK  102  A    between atoms: _251  and  _254
REMARK  103  A    between atoms: _254  and  _255
REMARK  104  A    between atoms: _258  and  _260
REMARK  105  A    between atoms: _260  and  _261
REMARK  106  A    between atoms: _260  and  _263
REMARK  107  A    between atoms: _263  and  _264
REMARK  108  A    between atoms: _264  and  _265
REMARK  109  A    between atoms: _270  and  _272
REMARK  110  A    between atoms: _272  and  _273
REMARK  111  A    between atoms: _272  and  _275
REMARK  112  A    between atoms: _275  and  _276
REMARK  113  A    between atoms: _276  and  _277
REMARK  114  A    between atoms: _277  and  _278
REMARK  115  A    between atoms: _278  and  _279
REMARK  116  A    between atoms: _283  and  _285
REMARK  117  A    between atoms: _285  and  _286
REMARK  118  A    between atoms: _289  and  _291
REMARK  119  A    between atoms: _291  and  _292
REMARK  120  A    between atoms: _294  and  _296
REMARK  121  A    between atoms: _296  and  _297
REMARK  122  A    between atoms: _296  and  _299
REMARK  123  A    between atoms: _299  and  _300
REMARK  124  A    between atoms: _305  and  _307
REMARK  125  A    between atoms: _307  and  _308
REMARK  126  A    between atoms: _307  and  _310
REMARK  127  A    between atoms: _310  and  _311
REMARK  128  A    between atoms: _311  and  _312
REMARK  129  A    between atoms: _315  and  _317
REMARK  130  A    between atoms: _317  and  _318
REMARK  131  A    between atoms: _317  and  _320
REMARK  132  A    between atoms: _320  and  _321
REMARK  133  A    between atoms: _323  and  _325
REMARK  134  A    between atoms: _325  and  _326
REMARK  135  A    between atoms: _325  and  _328
REMARK  136  A    between atoms: _328  and  _329
REMARK  137  A    between atoms: _335  and  _337
REMARK  138  A    between atoms: _337  and  _338
REMARK  139  A    between atoms: _337  and  _340
REMARK  140  A    between atoms: _343  and  _345
REMARK  141  A    between atoms: _345  and  _346
REMARK  142  A    between atoms: _345  and  _348
REMARK  143  A    between atoms: _348  and  _349
REMARK  144  A    between atoms: _352  and  _354
REMARK  145  A    between atoms: _354  and  _355
REMARK  146  A    between atoms: _354  and  _357
REMARK  147  A    between atoms: _357  and  _358
REMARK  148  A    between atoms: _361  and  _363
REMARK  149  A    between atoms: _363  and  _364
REMARK  150  A    between atoms: _363  and  _366
REMARK  151  A    between atoms: _366  and  _367
REMARK  152  A    between atoms: _370  and  _372
REMARK  153  A    between atoms: _372  and  _373
REMARK  154  A    between atoms: _372  and  _375
REMARK  155  A    between atoms: _375  and  _376
REMARK  156  A    between atoms: _379  and  _381
REMARK  157  A    between atoms: _381  and  _382
REMARK  158  A    between atoms: _381  and  _384
REMARK  159  A    between atoms: _384  and  _385
REMARK  160  A    between atoms: _390  and  _391
REMARK  161  A    between atoms: _393  and  _395
REMARK  162  A    between atoms: _395  and  _396
REMARK  163  A    between atoms: _395  and  _398
REMARK  164  A    between atoms: _398  and  _399
REMARK  165  A    between atoms: _404  and  _405
REMARK  166  A    between atoms: _407  and  _409
REMARK  167  A    between atoms: _409  and  _410
REMARK  168  A    between atoms: _409  and  _412
REMARK  169  A    between atoms: _412  and  _413
REMARK  170  A    between atoms: _416  and  _418
REMARK  171  A    between atoms: _418  and  _419
REMARK  172  A    between atoms: _418  and  _421
REMARK  173  A    between atoms: _421  and  _422
REMARK  174  A    between atoms: _422  and  _423
REMARK  175  A    between atoms: _428  and  _430
REMARK  176  A    between atoms: _430  and  _431
REMARK  177  A    between atoms: _430  and  _433
REMARK  178  A    between atoms: _436  and  _438
REMARK  179  A    between atoms: _438  and  _439
REMARK  180  A    between atoms: _438  and  _441
REMARK  181  A    between atoms: _441  and  _442
REMARK  182  A    between atoms: _445  and  _447
REMARK  183  A    between atoms: _447  and  _448
REMARK  184  A    between atoms: _447  and  _450
REMARK  185  A    between atoms: _450  and  _451
REMARK  186  A    between atoms: _453  and  _455
REMARK  187  A    between atoms: _455  and  _456
REMARK  188  A    between atoms: _458  and  _460
REMARK  189  A    between atoms: _460  and  _461
REMARK  190  A    between atoms: _460  and  _463
REMARK  191  A    between atoms: _463  and  _464
REMARK  192  A    between atoms: _464  and  _790
REMARK  193  A    between atoms: _465  and  _467
REMARK  194  A    between atoms: _467  and  _468
REMARK  195  A    between atoms: _467  and  _470
REMARK  196  A    between atoms: _470  and  _471
REMARK  197  A    between atoms: _476  and  _477
REMARK  198  A    between atoms: _479  and  _481
REMARK  199  A    between atoms: _481  and  _482
REMARK  200  A    between atoms: _481  and  _484
REMARK  201  A    between atoms: _484  and  _485
REMARK  202  A    between atoms: _485  and  _486
REMARK  203  A    between atoms: _491  and  _493
REMARK  204  A    between atoms: _493  and  _494
REMARK  205  A    between atoms: _493  and  _496
REMARK  206  A    between atoms: _496  and  _497
REMARK  207  A    between atoms: _497  and  _498
REMARK  208  A    between atoms: _503  and  _505
REMARK  209  A    between atoms: _505  and  _506
REMARK  210  A    between atoms: _505  and  _508
REMARK  211  A    between atoms: _508  and  _509
REMARK  212  A    between atoms: _514  and  _515
REMARK  213  A    between atoms: _517  and  _519
REMARK  214  A    between atoms: _519  and  _520
REMARK  215  A    between atoms: _523  and  _525
REMARK  216  A    between atoms: _525  and  _526
REMARK  217  A    between atoms: _525  and  _528
REMARK  218  A    between atoms: _528  and  _529
REMARK  219  A    between atoms: _534  and  _535
REMARK  220  A    between atoms: _537  and  _539
REMARK  221  A    between atoms: _539  and  _540
REMARK  222  A    between atoms: _539  and  _542
REMARK  223  A    between atoms: _542  and  _543
REMARK  224  A    between atoms: _548  and  _549
REMARK  225  A    between atoms: _551  and  _553
REMARK  226  A    between atoms: _553  and  _554
REMARK  227  A    between atoms: _553  and  _556
REMARK  228  A    between atoms: _556  and  _557
REMARK  229  A    between atoms: _560  and  _562
REMARK  230  A    between atoms: _562  and  _563
REMARK  231  A    between atoms: _562  and  _565
REMARK  232  A    between atoms: _565  and  _566
REMARK  233  A    between atoms: _576  and  _578
REMARK  234  A    between atoms: _578  and  _579
REMARK  235  A    between atoms: _582  and  _584
REMARK  236  A    between atoms: _584  and  _585
REMARK  237  A    between atoms: _588  and  _590
REMARK  238  A    between atoms: _590  and  _591
REMARK  239  A    between atoms: _590  and  _593
REMARK  240  A    between atoms: _593  and  _594
REMARK  241  A    between atoms: _597  and  _599
REMARK  242  A    between atoms: _599  and  _600
REMARK  243  A    between atoms: _599  and  _602
REMARK  244  A    between atoms: _602  and  _603
REMARK  245  A    between atoms: _606  and  _608
REMARK  246  A    between atoms: _608  and  _609
REMARK  247  A    between atoms: _608  and  _611
REMARK  248  A    between atoms: _611  and  _612
REMARK  249  A    between atoms: _615  and  _617
REMARK  250  A    between atoms: _617  and  _618
REMARK  251  A    between atoms: _617  and  _620
REMARK  252  A    between atoms: _620  and  _621
REMARK  253  A    between atoms: _621  and  _622
REMARK  254  A    between atoms: _622  and  _623
REMARK  255  A    between atoms: _623  and  _624
REMARK  256  A    between atoms: _628  and  _630
REMARK  257  A    between atoms: _630  and  _631
REMARK  258  A    between atoms: _630  and  _633
REMARK  259  A    between atoms: _633  and  _634
REMARK  260  A    between atoms: _639  and  _641
REMARK  261  A    between atoms: _641  and  _642
REMARK  262  A    between atoms: _641  and  _644
REMARK  263  A    between atoms: _644  and  _645
REMARK  264  A    between atoms: _645  and  _646
REMARK  265  A    between atoms: _646  and  _647
REMARK  266  A    between atoms: _647  and  _648
REMARK  267  A    between atoms: _652  and  _654
REMARK  268  A    between atoms: _654  and  _655
REMARK  269  A    between atoms: _654  and  _657
REMARK  270  A    between atoms: _657  and  _658
REMARK  271  A    between atoms: _668  and  _670
REMARK  272  A    between atoms: _670  and  _671
REMARK  273  A    between atoms: _674  and  _676
REMARK  274  A    between atoms: _676  and  _677
REMARK  275  A    between atoms: _679  and  _681
REMARK  276  A    between atoms: _681  and  _682
REMARK  277  A    between atoms: _685  and  _687
REMARK  278  A    between atoms: _687  and  _688
REMARK  279  A    between atoms: _691  and  _693
REMARK  280  A    between atoms: _693  and  _694
REMARK  281  A    between atoms: _693  and  _696
REMARK  282  A    between atoms: _696  and  _697
REMARK  283  A    between atoms: _697  and  _698
REMARK  284  A    between atoms: _701  and  _703
REMARK  285  A    between atoms: _703  and  _704
REMARK  286  A    between atoms: _703  and  _706
REMARK  287  A    between atoms: _706  and  _707
REMARK  288  A    between atoms: _712  and  _713
REMARK  289  A    between atoms: _715  and  _717
REMARK  290  A    between atoms: _717  and  _718
REMARK  291  A    between atoms: _717  and  _720
REMARK  292  A    between atoms: _720  and  _721
REMARK  293  A    between atoms: _726  and  _727
REMARK  294  A    between atoms: _729  and  _731
REMARK  295  A    between atoms: _731  and  _732
REMARK  296  A    between atoms: _731  and  _734
REMARK  297  A    between atoms: _734  and  _735
REMARK  298  A    between atoms: _735  and  _736
REMARK  299  A    between atoms: _736  and  _737
REMARK  300  A    between atoms: _746  and  _748
REMARK  301  A    between atoms: _748  and  _749
REMARK  302  A    between atoms: _752  and  _754
REMARK  303  A    between atoms: _754  and  _755
REMARK  304  A    between atoms: _754  and  _757
REMARK  305  A    between atoms: _757  and  _758
REMARK  306  A    between atoms: _763  and  _764
REMARK  307  A    between atoms: _766  and  _768
REMARK  308  A    between atoms: _768  and  _769
REMARK  309  A    between atoms: _768  and  _771
REMARK  310  A    between atoms: _771  and  _772
REMARK  311  A    between atoms: _775  and  _777
REMARK  312  A    between atoms: _777  and  _778
REMARK  313  A    between atoms: _777  and  _780
REMARK  314  A    between atoms: _780  and  _781
REMARK  315  A    between atoms: _784  and  _786
REMARK  316  A    between atoms: _786  and  _787
REMARK  317  A    between atoms: _786  and  _789
REMARK  318  A    between atoms: _789  and  _790
REMARK  319  A    between atoms: _791  and  _793
REMARK  320  A    between atoms: _793  and  _794
REMARK  321  A    between atoms: _793  and  _796
REMARK  322  A    between atoms: _799  and  _801
REMARK  323  A    between atoms: _801  and  _802
REMARK  324  A    between atoms: _801  and  _804
REMARK  325  A    between atoms: _804  and  _805
REMARK  326  A    between atoms: _805  and  _806
REMARK  327  A    between atoms: _809  and  _811
REMARK  328  A    between atoms: _811  and  _812
REMARK  329  A    between atoms: _811  and  _814
REMARK  330  A    between atoms: _814  and  _815
REMARK  331  A    between atoms: _825  and  _827
REMARK  332  A    between atoms: _827  and  _828
REMARK  333  A    between atoms: _827  and  _830
REMARK  334  A    between atoms: _830  and  _831
REMARK  335  A    between atoms: _834  and  _836
REMARK  336  A    between atoms: _836  and  _837
REMARK  337  A    between atoms: _836  and  _839
REMARK  338  A    between atoms: _839  and  _840
REMARK  339  A    between atoms: _840  and  _841
REMARK  340  A    between atoms: _841  and  _842
REMARK  341  A    between atoms: _851  and  _853
REMARK  342  A    between atoms: _853  and  _854
REMARK  343  A    between atoms: _853  and  _856
REMARK  344  A    between atoms: _856  and  _857
REMARK  345  A    between atoms: _862  and  _863
REMARK                            x       y       z     vdW  Elec       q    Type
REMARK                         _______ _______ _______ _____ _____    ______ ____
ROOT
ATOM      1  CA  ASP A   2      33.077  55.081 -11.647  0.00  0.00    +0.160 C 
ENDROOT
BRANCH   1   3
ATOM      2  C   VAL A   1      31.056  56.305 -11.036  0.00  0.00    +0.238 C 
ATOM      3  N   ASP A   2      32.276  55.877 -10.718  0.00  0.00    -0.297 N 
ATOM      4  H   ASP A   2      32.669  56.115  -9.785  0.00  0.00    +0.150 HD
ATOM      5  O   VAL A   1      30.530  56.080 -12.126  0.00  0.00    -0.274 OA
BRANCH   2   6
ATOM      6  CA  VAL A   1      30.310  57.112  -9.968  0.00  0.00    +0.145 C 
BRANCH   6   7
ATOM      7  CB  VAL A   1      30.847  58.581  -9.967  0.00  0.00    +0.025 C 
ATOM      8  CG2 VAL A   1      29.971  59.444  -9.080  0.00  0.00    +0.002 C 
ATOM      9  CG1 VAL A   1      30.862  59.133 -11.380  0.00  0.00    +0.002 C 
ENDBRANCH   6   7
BRANCH   6  10
ATOM     10  N   VAL A   1      30.464  56.494  -8.655  0.00  0.00    -0.238 NA
ATOM     11  H   VAL A   1      31.042  56.962  -7.928  0.00  0.00    +0.142 HD
ENDBRANCH   6  10
ENDBRANCH   2   6
ENDBRANCH   1   3
BRANCH   1  12
ATOM     12  C   ASP A   2      32.325  53.829 -12.100  0.00  0.00    +0.241 C 
ATOM     13  N   LEU A   3      31.660  53.161 -11.160  0.00  0.00    -0.298 N 
ATOM     14  H   LEU A   3      31.675  53.503 -10.178  0.00  0.00    +0.150 HD
ATOM     15  O   ASP A   2      32.361  53.474 -13.283  0.00  0.00    -0.273 OA
BRANCH  13  16
ATOM     16  CA  LEU A   3      30.907  51.949 -11.493  0.00  0.00    +0.137 C 
BRANCH  16  17
ATOM     17  C   LEU A   3      29.883  52.262 -12.576  0.00  0.00    +0.227 C 
ATOM     18  O   LEU A   3      29.757  51.523 -13.561  0.00  0.00    -0.286 OA
ENDBRANCH  16  17
BRANCH  16  19
ATOM     19  CB  LEU A   3      30.221  51.379 -10.243  0.00  0.00    +0.028 C 
BRANCH  19  20
ATOM     20  CG  LEU A   3      31.206  50.676  -9.289  0.00  0.00    +0.002 C 
ATOM     21  CD2 LEU A   3      30.563  50.447  -7.918  0.00  0.00    +0.000 C 
ATOM     22  CD1 LEU A   3      31.658  49.345  -9.909  0.00  0.00    +0.000 C 
ENDBRANCH  19  20
ENDBRANCH  16  19
ENDBRANCH  13  16
ENDBRANCH   1  12
BRANCH   1  23
ATOM     23  CB  ASP A   2      34.399  54.636 -11.005  0.00  0.00    +0.143 C 
BRANCH  23  24
ATOM     24  CG  ASP A   2      35.341  55.787 -10.752  0.00  0.00    +0.367 C 
ATOM     25  OD2 ASP A   2      36.168  55.675  -9.827  0.00  0.00    -0.246 OA
ATOM     26  OD1 ASP A   2      35.262  56.799 -11.485  0.00  0.00    -0.246 OA
ENDBRANCH  23  24
ENDBRANCH   1  23
TORSDOF 11
REMARK  Name = ../refined-set-2016/1fzj/1fzj_pocket.pdb
REMARK  345 active torsions:
REMARK  status: ('A' for Active; 'I' for Inactive)
REMARK    1  A    between atoms: _1  and  _3
REMARK    2  A    between atoms: _3  and  _4
REMARK    3  A    between atoms: _3  and  _6
REMARK    4  A    between atoms: _6  and  _7
REMARK    5  A    between atoms: _10  and  _12
REMARK    6  A    between atoms: _12  and  _13
REMARK    7  A    between atoms: _12  and  _15
REMARK    8  A    between atoms: _15  and  _16
REMARK    9  A    between atoms: _16  and  _17
REMARK   10  A    between atoms: _17  and  _18
REMARK   11  A    between atoms: _27  and  _29
REMARK   12  A    between atoms: _29  and  _30
REMARK   13  A    between atoms: _29  and  _32
REMARK   14  A    between atoms: _32  and  _33
REMARK   15  A    between atoms: _38  and  _39
REMARK   16  A    between atoms: _41  and  _43
REMARK   17  A    between atoms: _43  and  _44
REMARK   18  A    between atoms: _43  and  _46
REMARK   19  A    between atoms: _46  and  _47
REMARK   20  A    between atoms: _53  and  _55
REMARK   21  A    between atoms: _55  and  _56
REMARK   22  A    between atoms: _55  and  _58
REMARK   23  A    between atoms: _61  and  _63
REMARK   24  A    between atoms: _63  and  _64
REMARK   25  A    between atoms: _63  and  _66
REMARK   26  A    between atoms: _66  and  _67
REMARK   27  A    between atoms: _70  and  _72
REMARK   28  A    between atoms: _72  and  _73
REMARK   29  A    between atoms: _72  and  _75
REMARK   30  A    between atoms: _75  and  _76
REMARK   31  A    between atoms: _81  and  _82
REMARK   32  A    between atoms: _84  and  _86
REMARK   33  A    between atoms: _86  and  _87
REMARK   34  A    between atoms: _86  and  _89
REMARK   35  A    between atoms: _89  and  _90
REMARK   36  A    between atoms: _90  and  _91
REMARK   37  A    between atoms: _93  and  _95
REMARK   38  A    between atoms: _95  and  _96
REMARK   39  A    between atoms: _95  and  _98
REMARK   40  A    between atoms: _98  and  _99
REMARK   41  A    between atoms: _99  and  _100
REMARK   42  A    between atoms: _103  and  _105
REMARK   43  A    between atoms: _105  and  _106
REMARK   44  A    between atoms: _105  and  _108
REMARK   45  A    between atoms: _111  and  _113
REMARK   46  A    between atoms: _113  and  _114
REMARK   47  A    between atoms: _113  and  _116
REMARK   48  A    between atoms: _119  and  _121
REMARK   49  A    between atoms: _121  and  _122
REMARK   50  A    between atoms: _121  and  _124
REMARK   51  A    between atoms: _124  and  _125
REMARK   52  A    between atoms: _131  and  _133
REMARK   53  A    between atoms: _133  and  _134
REMARK   54  A    between atoms: _133  and  _136
REMARK   55  A    between atoms: _139  and  _141
REMARK   56  A    between atoms: _141  and  _142
REMARK   57  A    between atoms: _141  and  _144
REMARK   58  A    between atoms: _144  and  _145
REMARK   59  A    between atoms: _150  and  _151
REMARK   60  A    between atoms: _153  and  _155
REMARK   61  A    between atoms: _155  and  _156
REMARK   62  A    between atoms: _155  and  _158
REMARK   63  A    between atoms: _158  and  _159
REMARK   64  A    between atoms: _159  and  _160
REMARK   65  A    between atoms: _162  and  _164
REMARK   66  A    between atoms: _164  and  _165
REMARK   67  A    between atoms: _164  and  _167
REMARK   68  A    between atoms: _167  and  _168
REMARK   69  A    between atoms: _168  and  _169
REMARK   70  A    between atoms: _172  and  _174
REMARK   71  A    between atoms: _174  and  _175
REMARK   72  A    between atoms: _174  and  _177
REMARK   73  A    between atoms: _177  and  _178
REMARK   74  A    between atoms: _178  and  _179
REMARK   75  A    between atoms: _182  and  _184
REMARK   76  A    between atoms: _184  and  _185
REMARK   77  A    between atoms: _184  and  _187
REMARK   78  A    between atoms: _187  and  _188
REMARK   79  A    between atoms: _193  and  _194
REMARK   80  A    between atoms: _196  and  _198
REMARK   81  A    between atoms: _198  and  _199
REMARK   82  A    between atoms: _198  and  _201
REMARK   83  A    between atoms: _201  and  _202
REMARK   84  A    between atoms: _212  and  _214
REMARK   85  A    between atoms: _214  and  _215
REMARK   86  A    between atoms: _214  and  _217
REMARK   87  A    between atoms: _217  and  _218
REMARK   88  A    between atoms: _218  and  _219
REMARK   89  A    between atoms: _222  and  _224
REMARK   90  A    between atoms: _224  and  _225
REMARK   91  A    between atoms: _224  and  _227
REMARK   92  A    between atoms: _227  and  _228
REMARK   93  A    between atoms: _228  and  _229
REMARK   94  A    between atoms: _229  and  _230
REMARK   95  A    between atoms: _239  and  _241
REMARK   96  A    between atoms: _241  and  _242
REMARK   97  A    between atoms: _241  and  _244
REMARK   98  A    between atoms: _244  and  _245
REMARK   99  A    between atoms: _245  and  _246
REMARK  100  A    between atoms: _249  and  _251
REMARK  101  A    between atoms: _251  and  _252
REMARK  102  A    between atoms: _251  and  _254
REMARK  103  A    between atoms: _254  and  _255
REMARK  104  A    between atoms: _258  and  _260
REMARK  105  A    between atoms: _260  and  _261
REMARK  106  A    between atoms: _260  and  _263
REMARK  107  A    between atoms: _263  and  _264
REMARK  108  A    between atoms: _264  and  _265
REMARK  109  A    between atoms: _270  and  _272
REMARK  110  A    between atoms: _272  and  _273
REMARK  111  A    between atoms: _272  and  _275
REMARK  112  A    between atoms: _275  and  _276
REMARK  113  A    between atoms: _276  and  _277
REMARK  114  A    between atoms: _277  and  _278
REMARK  115  A    between atoms: _278  and  _279
REMARK  116  A    between atoms: _283  and  _285
REMARK  117  A    between atoms: _285  and  _286
REMARK  118  A    between atoms: _289  and  _291
REMARK  119  A    between atoms: _291  and  _292
REMARK  120  A    between atoms: _294  and  _296
REMARK  121  A    between atoms: _296  and  _297
REMARK  122  A    between atoms: _296  and  _299
REMARK  123  A    between atoms: _299  and  _300
REMARK  124  A    between atoms: _305  and  _307
REMARK  125  A    between atoms: _307  and  _308
REMARK  126  A    between atoms: _307  and  _310
REMARK  127  A    between atoms: _310  and  _311
REMARK  128  A    between atoms: _311  and  _312
REMARK  129  A    between atoms: _315  and  _317
REMARK  130  A    between atoms: _317  and  _318
REMARK  131  A    between atoms: _317  and  _320
REMARK  132  A    between atoms: _320  and  _321
REMARK  133  A    between atoms: _323  and  _325
REMARK  134  A    between atoms: _325  and  _326
REMARK  135  A    between atoms: _325  and  _328
REMARK  136  A    between atoms: _328  and  _329
REMARK  137  A    between atoms: _335  and  _337
REMARK  138  A    between atoms: _337  and  _338
REMARK  139  A    between atoms: _337  and  _340
REMARK  140  A    between atoms: _343  and  _345
REMARK  141  A    between atoms: _345  and  _346
REMARK  142  A    between atoms: _345  and  _348
REMARK  143  A    between atoms: _348  and  _349
REMARK  144  A    between atoms: _352  and  _354
REMARK  145  A    between atoms: _354  and  _355
REMARK  146  A    between atoms: _354  and  _357
REMARK  147  A    between atoms: _357  and  _358
REMARK  148  A    between atoms: _361  and  _363
REMARK  149  A    between atoms: _363  and  _364
REMARK  150  A    between atoms: _363  and  _366
REMARK  151  A    between atoms: _366  and  _367
REMARK  152  A    between atoms: _370  and  _372
REMARK  153  A    between atoms: _372  and  _373
REMARK  154  A    between atoms: _372  and  _375
REMARK  155  A    between atoms: _375  and  _376
REMARK  156  A    between atoms: _379  and  _381
REMARK  157  A    between atoms: _381  and  _382
REMARK  158  A    between atoms: _381  and  _384
REMARK  159  A    between atoms: _384  and  _385
REMARK  160  A    between atoms: _390  and  _391
REMARK  161  A    between atoms: _393  and  _395
REMARK  162  A    between atoms: _395  and  _396
REMARK  163  A    between atoms: _395  and  _398
REMARK  164  A    between atoms: _398  and  _399
REMARK  165  A    between atoms: _404  and  _405
REMARK  166  A    between atoms: _407  and  _409
REMARK  167  A    between atoms: _409  and  _410
REMARK  168  A    between atoms: _409  and  _412
REMARK  169  A    between atoms: _412  and  _413
REMARK  170  A    between atoms: _416  and  _418
REMARK  171  A    between atoms: _418  and  _419
REMARK  172  A    between atoms: _418  and  _421
REMARK  173  A    between atoms: _421  and  _422
REMARK  174  A    between atoms: _422  and  _423
REMARK  175  A    between atoms: _428  and  _430
REMARK  176  A    between atoms: _430  and  _431
REMARK  177  A    between atoms: _430  and  _433
REMARK  178  A    between atoms: _436  and  _438
REMARK  179  A    between atoms: _438  and  _439
REMARK  180  A    between atoms: _438  and  _441
REMARK  181  A    between atoms: _441  and  _442
REMARK  182  A    between atoms: _445  and  _447
REMARK  183  A    between atoms: _447  and  _448
REMARK  184  A    between atoms: _447  and  _450
REMARK  185  A    between atoms: _450  and  _451
REMARK  186  A    between atoms: _453  and  _455
REMARK  187  A    between atoms: _455  and  _456
REMARK  188  A    between atoms: _458  and  _460
REMARK  189  A    between atoms: _460  and  _461
REMARK  190  A    between atoms: _460  and  _463
REMARK  191  A    between atoms: _463  and  _464
REMARK  192  A    between atoms: _464  and  _790
REMARK  193  A    between atoms: _465  and  _467
REMARK  194  A    between atoms: _467  and  _468
REMARK  195  A    between atoms: _467  and  _470
REMARK  196  A    between atoms: _470  and  _471
REMARK  197  A    between atoms: _476  and  _477
REMARK  198  A    between atoms: _479  and  _481
REMARK  199  A    between atoms: _481  and  _482
REMARK  200  A    between atoms: _481  and  _484
REMARK  201  A    between atoms: _484  and  _485
REMARK  202  A    between atoms: _485  and  _486
REMARK  203  A    between atoms: _491  and  _493
REMARK  204  A    between atoms: _493  and  _494
REMARK  205  A    between atoms: _493  and  _496
REMARK  206  A    between atoms: _496  and  _497
REMARK  207  A    between atoms: _497  and  _498
REMARK  208  A    between atoms: _503  and  _505
REMARK  209  A    between atoms: _505  and  _506
REMARK  210  A    between atoms: _505  and  _508
REMARK  211  A    between atoms: _508  and  _509
REMARK  212  A    between atoms: _514  and  _515
REMARK  213  A    between atoms: _517  and  _519
REMARK  214  A    between atoms: _519  and  _520
REMARK  215  A    between atoms: _523  and  _525
REMARK  216  A    between atoms: _525  and  _526
REMARK  217  A    between atoms: _525  and  _528
REMARK  218  A    between atoms: _528  and  _529
REMARK  219  A    between atoms: _534  and  _535
REMARK  220  A    between atoms: _537  and  _539
REMARK  221  A    between atoms: _539  and  _540
REMARK  222  A    between atoms: _539  and  _542
REMARK  223  A    between atoms: _542  and  _543
REMARK  224  A    between atoms: _548  and  _549
REMARK  225  A    between atoms: _551  and  _553
REMARK  226  A    between atoms: _553  and  _554
REMARK  227  A    between atoms: _553  and  _556
REMARK  228  A    between atoms: _556  and  _557
REMARK  229  A    between atoms: _560  and  _562
REMARK  230  A    between atoms: _562  and  _563
REMARK  231  A    between atoms: _562  and  _565
REMARK  232  A    between atoms: _565  and  _566
REMARK  233  A    between atoms: _576  and  _578
REMARK  234  A    between atoms: _578  and  _579
REMARK  235  A    between atoms: _582  and  _584
REMARK  236  A    between atoms: _584  and  _585
REMARK  237  A    between atoms: _588  and  _590
REMARK  238  A    between atoms: _590  and  _591
REMARK  239  A    between atoms: _590  and  _593
REMARK  240  A    between atoms: _593  and  _594
REMARK  241  A    between atoms: _597  and  _599
REMARK  242  A    between atoms: _599  and  _600
REMARK  243  A    between atoms: _599  and  _602
REMARK  244  A    between atoms: _602  and  _603
REMARK  245  A    between atoms: _606  and  _608
REMARK  246  A    between atoms: _608  and  _609
REMARK  247  A    between atoms: _608  and  _611
REMARK  248  A    between atoms: _611  and  _612
REMARK  249  A    between atoms: _615  and  _617
REMARK  250  A    between atoms: _617  and  _618
REMARK  251  A    between atoms: _617  and  _620
REMARK  252  A    between atoms: _620  and  _621
REMARK  253  A    between atoms: _621  and  _622
REMARK  254  A    between atoms: _622  and  _623
REMARK  255  A    between atoms: _623  and  _624
REMARK  256  A    between atoms: _628  and  _630
REMARK  257  A    between atoms: _630  and  _631
REMARK  258  A    between atoms: _630  and  _633
REMARK  259  A    between atoms: _633  and  _634
REMARK  260  A    between atoms: _639  and  _641
REMARK  261  A    between atoms: _641  and  _642
REMARK  262  A    between atoms: _641  and  _644
REMARK  263  A    between atoms: _644  and  _645
REMARK  264  A    between atoms: _645  and  _646
REMARK  265  A    between atoms: _646  and  _647
REMARK  266  A    between atoms: _647  and  _648
REMARK  267  A    between atoms: _652  and  _654
REMARK  268  A    between atoms: _654  and  _655
REMARK  269  A    between atoms: _654  and  _657
REMARK  270  A    between atoms: _657  and  _658
REMARK  271  A    between atoms: _668  and  _670
REMARK  272  A    between atoms: _670  and  _671
REMARK  273  A    between atoms: _674  and  _676
REMARK  274  A    between atoms: _676  and  _677
REMARK  275  A    between atoms: _679  and  _681
REMARK  276  A    between atoms: _681  and  _682
REMARK  277  A    between atoms: _685  and  _687
REMARK  278  A    between atoms: _687  and  _688
REMARK  279  A    between atoms: _691  and  _693
REMARK  280  A    between atoms: _693  and  _694
REMARK  281  A    between atoms: _693  and  _696
REMARK  282  A    between atoms: _696  and  _697
REMARK  283  A    between atoms: _697  and  _698
REMARK  284  A    between atoms: _701  and  _703
REMARK  285  A    between atoms: _703  and  _704
REMARK  286  A    between atoms: _703  and  _706
REMARK  287  A    between atoms: _706  and  _707
REMARK  288  A    between atoms: _712  and  _713
REMARK  289  A    between atoms: _715  and  _717
REMARK  290  A    between atoms: _717  and  _718
REMARK  291  A    between atoms: _717  and  _720
REMARK  292  A    between atoms: _720  and  _721
REMARK  293  A    between atoms: _726  and  _727
REMARK  294  A    between atoms: _729  and  _731
REMARK  295  A    between atoms: _731  and  _732
REMARK  296  A    between atoms: _731  and  _734
REMARK  297  A    between atoms: _734  and  _735
REMARK  298  A    between atoms: _735  and  _736
REMARK  299  A    between atoms: _736  and  _737
REMARK  300  A    between atoms: _746  and  _748
REMARK  301  A    between atoms: _748  and  _749
REMARK  302  A    between atoms: _752  and  _754
REMARK  303  A    between atoms: _754  and  _755
REMARK  304  A    between atoms: _754  and  _757
REMARK  305  A    between atoms: _757  and  _758
REMARK  306  A    between atoms: _763  and  _764
REMARK  307  A    between atoms: _766  and  _768
REMARK  308  A    between atoms: _768  and  _769
REMARK  309  A    between atoms: _768  and  _771
REMARK  310  A    between atoms: _771  and  _772
REMARK  311  A    between atoms: _775  and  _777
REMARK  312  A    between atoms: _777  and  _778
REMARK  313  A    between atoms: _777  and  _780
REMARK  314  A    between atoms: _780  and  _781
REMARK  315  A    between atoms: _784  and  _786
REMARK  316  A    between atoms: _786  and  _787
REMARK  317  A    between atoms: _786  and  _789
REMARK  318  A    between atoms: _789  and  _790
REMARK  319  A    between atoms: _791  and  _793
REMARK  320  A    between atoms: _793  and  _794
REMARK  321  A    between atoms: _793  and  _796
REMARK  322  A    between atoms: _799  and  _801
REMARK  323  A    between atoms: _801  and  _802
REMARK  324  A    between atoms: _801  and  _804
REMARK  325  A    between atoms: _804  and  _805
REMARK  326  A    between atoms: _805  and  _806
REMARK  327  A    between atoms: _809  and  _811
REMARK  328  A    between atoms: _811  and  _812
REMARK  329  A    between atoms: _811  and  _814
REMARK  330  A    between atoms: _814  and  _815
REMARK  331  A    between atoms: _825  and  _827
REMARK  332  A    between atoms: _827  and  _828
REMARK  333  A    between atoms: _827  and  _830
REMARK  334  A    between atoms: _830  and  _831
REMARK  335  A    between atoms: _834  and  _836
REMARK  336  A    between atoms: _836  and  _837
REMARK  337  A    between atoms: _836  and  _839
REMARK  338  A    between atoms: _839  and  _840
REMARK  339  A    between atoms: _840  and  _841
REMARK  340  A    between atoms: _841  and  _842
REMARK  341  A    between atoms: _851  and  _853
REMARK  342  A    between atoms: _853  and  _854
REMARK  343  A    between atoms: _853  and  _856
REMARK  344  A    between atoms: _856  and  _857
REMARK  345  A    between atoms: _862  and  _863
REMARK                            x       y       z     vdW  Elec       q    Type
REMARK                         _______ _______ _______ _____ _____    ______ ____
ROOT
ATOM      1  C   THR A   1      31.152  54.075 -16.658  0.00  0.00    +0.241 C 
ATOM      2  N   LEU A   2      31.681  53.052 -15.993  0.00  0.00    -0.298 N 
ATOM      3  H   LEU A   2      31.774  53.092 -14.958  0.00  0.00    +0.150 HD
ATOM      4  O   THR A   1      31.024  54.067 -17.892  0.00  0.00    -0.274 OA
ENDROOT
BRANCH   1   5
ATOM      5  CA  THR A   1      30.704  55.278 -15.824  0.00  0.00    +0.172 C 
BRANCH   5   6
ATOM      6  N   THR A   1      29.966  54.871 -14.632  0.00  0.00    -0.236 NA
ATOM      7  H   THR A   1      30.312  55.160 -13.695  0.00  0.00    +0.142 HD
ENDBRANCH   5   6
BRANCH   5   8
ATOM      8  CB  THR A   1      31.948  56.116 -15.441  0.00  0.00    +0.135 C 
ATOM      9  CG2 THR A   1      32.823  56.383 -16.660  0.00  0.00    +0.034 C 
BRANCH   8  10
ATOM     10  OG1 THR A   1      31.527  57.365 -14.878  0.00  0.00    -0.383 OA
ATOM     11  HG1 THR A   1      30.982  57.194 -14.070  0.00  0.00    +0.210 HD
ENDBRANCH   8  10
ENDBRANCH   5   8
ENDBRANCH   1   5
BRANCH   2  12
ATOM     12  CA  LEU A   2      32.131  51.872 -16.727  0.00  0.00    +0.137 C 
BRANCH  12  13
ATOM     13  C   LEU A   2      30.960  51.126 -17.361  0.00  0.00    +0.227 C 
ATOM     14  O   LEU A   2      31.127  50.485 -18.398  0.00  0.00    -0.286 OA
ENDBRANCH  12  13
BRANCH  12  15
ATOM     15  CB  LEU A   2      32.944  50.943 -15.814  0.00  0.00    +0.028 C 
BRANCH  15  16
ATOM     16  CG  LEU A   2      34.455  51.161 -15.870  0.00  0.00    +0.002 C 
ATOM     17  CD2 LEU A   2      35.094  50.568 -14.637  0.00  0.00    +0.000 C 
ATOM     18  CD1 LEU A   2      34.784  52.654 -15.963  0.00  0.00    +0.000 C 
ENDBRANCH  15  16
ENDBRANCH  12  15
ENDBRANCH   2  12
TORSDOF 8
REMARK  Name = ../refined-set-2016/1fzj/1fzj_pocket.pdb
REMARK  345 active torsions:
REMARK  status: ('A' for Active; 'I' for Inactive)
REMARK    1  A    between atoms: _1  and  _3
REMARK    2  A    between atoms: _3  and  _4
REMARK    3  A    between atoms: _3  and  _6
REMARK    4  A    between atoms: _6  and  _7
REMARK    5  A    between atoms: _10  and  _12
REMARK    6  A    between atoms: _12  and  _13
REMARK    7  A    between atoms: _12  and  _15
REMARK    8  A    between atoms: _15  and  _16
REMARK    9  A    between atoms: _16  and  _17
REMARK   10  A    between atoms: _17  and  _18
REMARK   11  A    between atoms: _27  and  _29
REMARK   12  A    between atoms: _29  and  _30
REMARK   13  A    between atoms: _29  and  _32
REMARK   14  A    between atoms: _32  and  _33
REMARK   15  A    between atoms: _38  and  _39
REMARK   16  A    between atoms: _41  and  _43
REMARK   17  A    between atoms: _43  and  _44
REMARK   18  A    between atoms: _43  and  _46
REMARK   19  A    between atoms: _46  and  _47
REMARK   20  A    between atoms: _53  and  _55
REMARK   21  A    between atoms: _55  and  _56
REMARK   22  A    between atoms: _55  and  _58
REMARK   23  A    between atoms: _61  and  _63
REMARK   24  A    between atoms: _63  and  _64
REMARK   25  A    between atoms: _63  and  _66
REMARK   26  A    between atoms: _66  and  _67
REMARK   27  A    between atoms: _70  and  _72
REMARK   28  A    between atoms: _72  and  _73
REMARK   29  A    between atoms: _72  and  _75
REMARK   30  A    between atoms: _75  and  _76
REMARK   31  A    between atoms: _81  and  _82
REMARK   32  A    between atoms: _84  and  _86
REMARK   33  A    between atoms: _86  and  _87
REMARK   34  A    between atoms: _86  and  _89
REMARK   35  A    between atoms: _89  and  _90
REMARK   36  A    between atoms: _90  and  _91
REMARK   37  A    between atoms: _93  and  _95
REMARK   38  A    between atoms: _95  and  _96
REMARK   39  A    between atoms: _95  and  _98
REMARK   40  A    between atoms: _98  and  _99
REMARK   41  A    between atoms: _99  and  _100
REMARK   42  A    between atoms: _103  and  _105
REMARK   43  A    between atoms: _105  and  _106
REMARK   44  A    between atoms: _105  and  _108
REMARK   45  A    between atoms: _111  and  _113
REMARK   46  A    between atoms: _113  and  _114
REMARK   47  A    between atoms: _113  and  _116
REMARK   48  A    between atoms: _119  and  _121
REMARK   49  A    between atoms: _121  and  _122
REMARK   50  A    between atoms: _121  and  _124
REMARK   51  A    between atoms: _124  and  _125
REMARK   52  A    between atoms: _131  and  _133
REMARK   53  A    between atoms: _133  and  _134
REMARK   54  A    between atoms: _133  and  _136
REMARK   55  A    between atoms: _139  and  _141
REMARK   56  A    between atoms: _141  and  _142
REMARK   57  A    between atoms: _141  and  _144
REMARK   58  A    between atoms: _144  and  _145
REMARK   59  A    between atoms: _150  and  _151
REMARK   60  A    between atoms: _153  and  _155
REMARK   61  A    between atoms: _155  and  _156
REMARK   62  A    between atoms: _155  and  _158
REMARK   63  A    between atoms: _158  and  _159
REMARK   64  A    between atoms: _159  and  _160
REMARK   65  A    between atoms: _162  and  _164
REMARK   66  A    between atoms: _164  and  _165
REMARK   67  A    between atoms: _164  and  _167
REMARK   68  A    between atoms: _167  and  _168
REMARK   69  A    between atoms: _168  and  _169
REMARK   70  A    between atoms: _172  and  _174
REMARK   71  A    between atoms: _174  and  _175
REMARK   72  A    between atoms: _174  and  _177
REMARK   73  A    between atoms: _177  and  _178
REMARK   74  A    between atoms: _178  and  _179
REMARK   75  A    between atoms: _182  and  _184
REMARK   76  A    between atoms: _184  and  _185
REMARK   77  A    between atoms: _184  and  _187
REMARK   78  A    between atoms: _187  and  _188
REMARK   79  A    between atoms: _193  and  _194
REMARK   80  A    between atoms: _196  and  _198
REMARK   81  A    between atoms: _198  and  _199
REMARK   82  A    between atoms: _198  and  _201
REMARK   83  A    between atoms: _201  and  _202
REMARK   84  A    between atoms: _212  and  _214
REMARK   85  A    between atoms: _214  and  _215
REMARK   86  A    between atoms: _214  and  _217
REMARK   87  A    between atoms: _217  and  _218
REMARK   88  A    between atoms: _218  and  _219
REMARK   89  A    between atoms: _222  and  _224
REMARK   90  A    between atoms: _224  and  _225
REMARK   91  A    between atoms: _224  and  _227
REMARK   92  A    between atoms: _227  and  _228
REMARK   93  A    between atoms: _228  and  _229
REMARK   94  A    between atoms: _229  and  _230
REMARK   95  A    between atoms: _239  and  _241
REMARK   96  A    between atoms: _241  and  _242
REMARK   97  A    between atoms: _241  and  _244
REMARK   98  A    between atoms: _244  and  _245
REMARK   99  A    between atoms: _245  and  _246
REMARK  100  A    between atoms: _249  and  _251
REMARK  101  A    between atoms: _251  and  _252
REMARK  102  A    between atoms: _251  and  _254
REMARK  103  A    between atoms: _254  and  _255
REMARK  104  A    between atoms: _258  and  _260
REMARK  105  A    between atoms: _260  and  _261
REMARK  106  A    between atoms: _260  and  _263
REMARK  107  A    between atoms: _263  and  _264
REMARK  108  A    between atoms: _264  and  _265
REMARK  109  A    between atoms: _270  and  _272
REMARK  110  A    between atoms: _272  and  _273
REMARK  111  A    between atoms: _272  and  _275
REMARK  112  A    between atoms: _275  and  _276
REMARK  113  A    between atoms: _276  and  _277
REMARK  114  A    between atoms: _277  and  _278
REMARK  115  A    between atoms: _278  and  _279
REMARK  116  A    between atoms: _283  and  _285
REMARK  117  A    between atoms: _285  and  _286
REMARK  118  A    between atoms: _289  and  _291
REMARK  119  A    between atoms: _291  and  _292
REMARK  120  A    between atoms: _294  and  _296
REMARK  121  A    between atoms: _296  and  _297
REMARK  122  A    between atoms: _296  and  _299
REMARK  123  A    between atoms: _299  and  _300
REMARK  124  A    between atoms: _305  and  _307
REMARK  125  A    between atoms: _307  and  _308
REMARK  126  A    between atoms: _307  and  _310
REMARK  127  A    between atoms: _310  and  _311
REMARK  128  A    between atoms: _311  and  _312
REMARK  129  A    between atoms: _315  and  _317
REMARK  130  A    between atoms: _317  and  _318
REMARK  131  A    between atoms: _317  and  _320
REMARK  132  A    between atoms: _320  and  _321
REMARK  133  A    between atoms: _323  and  _325
REMARK  134  A    between atoms: _325  and  _326
REMARK  135  A    between atoms: _325  and  _328
REMARK  136  A    between atoms: _328  and  _329
REMARK  137  A    between atoms: _335  and  _337
REMARK  138  A    between atoms: _337  and  _338
REMARK  139  A    between atoms: _337  and  _340
REMARK  140  A    between atoms: _343  and  _345
REMARK  141  A    between atoms: _345  and  _346
REMARK  142  A    between atoms: _345  and  _348
REMARK  143  A    between atoms: _348  and  _349
REMARK  144  A    between atoms: _352  and  _354
REMARK  145  A    between atoms: _354  and  _355
REMARK  146  A    between atoms: _354  and  _357
REMARK  147  A    between atoms: _357  and  _358
REMARK  148  A    between atoms: _361  and  _363
REMARK  149  A    between atoms: _363  and  _364
REMARK  150  A    between atoms: _363  and  _366
REMARK  151  A    between atoms: _366  and  _367
REMARK  152  A    between atoms: _370  and  _372
REMARK  153  A    between atoms: _372  and  _373
REMARK  154  A    between atoms: _372  and  _375
REMARK  155  A    between atoms: _375  and  _376
REMARK  156  A    between atoms: _379  and  _381
REMARK  157  A    between atoms: _381  and  _382
REMARK  158  A    between atoms: _381  and  _384
REMARK  159  A    between atoms: _384  and  _385
REMARK  160  A    between atoms: _390  and  _391
REMARK  161  A    between atoms: _393  and  _395
REMARK  162  A    between atoms: _395  and  _396
REMARK  163  A    between atoms: _395  and  _398
REMARK  164  A    between atoms: _398  and  _399
REMARK  165  A    between atoms: _404  and  _405
REMARK  166  A    between atoms: _407  and  _409
REMARK  167  A    between atoms: _409  and  _410
REMARK  168  A    between atoms: _409  and  _412
REMARK  169  A    between atoms: _412  and  _413
REMARK  170  A    between atoms: _416  and  _418
REMARK  171  A    between atoms: _418  and  _419
REMARK  172  A    between atoms: _418  and  _421
REMARK  173  A    between atoms: _421  and  _422
REMARK  174  A    between atoms: _422  and  _423
REMARK  175  A    between atoms: _428  and  _430
REMARK  176  A    between atoms: _430  and  _431
REMARK  177  A    between atoms: _430  and  _433
REMARK  178  A    between atoms: _436  and  _438
REMARK  179  A    between atoms: _438  and  _439
REMARK  180  A    between atoms: _438  and  _441
REMARK  181  A    between atoms: _441  and  _442
REMARK  182  A    between atoms: _445  and  _447
REMARK  183  A    between atoms: _447  and  _448
REMARK  184  A    between atoms: _447  and  _450
REMARK  185  A    between atoms: _450  and  _451
REMARK  186  A    between atoms: _453  and  _455
REMARK  187  A    between atoms: _455  and  _456
REMARK  188  A    between atoms: _458  and  _460
REMARK  189  A    between atoms: _460  and  _461
REMARK  190  A    between atoms: _460  and  _463
REMARK  191  A    between atoms: _463  and  _464
REMARK  192  A    between atoms: _464  and  _790
REMARK  193  A    between atoms: _465  and  _467
REMARK  194  A    between atoms: _467  and  _468
REMARK  195  A    between atoms: _467  and  _470
REMARK  196  A    between atoms: _470  and  _471
REMARK  197  A    between atoms: _476  and  _477
REMARK  198  A    between atoms: _479  and  _481
REMARK  199  A    between atoms: _481  and  _482
REMARK  200  A    between atoms: _481  and  _484
REMARK  201  A    between atoms: _484  and  _485
REMARK  202  A    between atoms: _485  and  _486
REMARK  203  A    between atoms: _491  and  _493
REMARK  204  A    between atoms: _493  and  _494
REMARK  205  A    between atoms: _493  and  _496
REMARK  206  A    between atoms: _496  and  _497
REMARK  207  A    between atoms: _497  and  _498
REMARK  208  A    between atoms: _503  and  _505
REMARK  209  A    between atoms: _505  and  _506
REMARK  210  A    between atoms: _505  and  _508
REMARK  211  A    between atoms: _508  and  _509
REMARK  212  A    between atoms: _514  and  _515
REMARK  213  A    between atoms: _517  and  _519
REMARK  214  A    between atoms: _519  and  _520
REMARK  215  A    between atoms: _523  and  _525
REMARK  216  A    between atoms: _525  and  _526
REMARK  217  A    between atoms: _525  and  _528
REMARK  218  A    between atoms: _528  and  _529
REMARK  219  A    between atoms: _534  and  _535
REMARK  220  A    between atoms: _537  and  _539
REMARK  221  A    between atoms: _539  and  _540
REMARK  222  A    between atoms: _539  and  _542
REMARK  223  A    between atoms: _542  and  _543
REMARK  224  A    between atoms: _548  and  _549
REMARK  225  A    between atoms: _551  and  _553
REMARK  226  A    between atoms: _553  and  _554
REMARK  227  A    between atoms: _553  and  _556
REMARK  228  A    between atoms: _556  and  _557
REMARK  229  A    between atoms: _560  and  _562
REMARK  230  A    between atoms: _562  and  _563
REMARK  231  A    between atoms: _562  and  _565
REMARK  232  A    between atoms: _565  and  _566
REMARK  233  A    between atoms: _576  and  _578
REMARK  234  A    between atoms: _578  and  _579
REMARK  235  A    between atoms: _582  and  _584
REMARK  236  A    between atoms: _584  and  _585
REMARK  237  A    between atoms: _588  and  _590
REMARK  238  A    between atoms: _590  and  _591
REMARK  239  A    between atoms: _590  and  _593
REMARK  240  A    between atoms: _593  and  _594
REMARK  241  A    between atoms: _597  and  _599
REMARK  242  A    between atoms: _599  and  _600
REMARK  243  A    between atoms: _599  and  _602
REMARK  244  A    between atoms: _602  and  _603
REMARK  245  A    between atoms: _606  and  _608
REMARK  246  A    between atoms: _608  and  _609
REMARK  247  A    between atoms: _608  and  _611
REMARK  248  A    between atoms: _611  and  _612
REMARK  249  A    between atoms: _615  and  _617
REMARK  250  A    between atoms: _617  and  _618
REMARK  251  A    between atoms: _617  and  _620
REMARK  252  A    between atoms: _620  and  _621
REMARK  253  A    between atoms: _621  and  _622
REMARK  254  A    between atoms: _622  and  _623
REMARK  255  A    between atoms: _623  and  _624
REMARK  256  A    between atoms: _628  and  _630
REMARK  257  A    between atoms: _630  and  _631
REMARK  258  A    between atoms: _630  and  _633
REMARK  259  A    between atoms: _633  and  _634
REMARK  260  A    between atoms: _639  and  _641
REMARK  261  A    between atoms: _641  and  _642
REMARK  262  A    between atoms: _641  and  _644
REMARK  263  A    between atoms: _644  and  _645
REMARK  264  A    between atoms: _645  and  _646
REMARK  265  A    between atoms: _646  and  _647
REMARK  266  A    between atoms: _647  and  _648
REMARK  267  A    between atoms: _652  and  _654
REMARK  268  A    between atoms: _654  and  _655
REMARK  269  A    between atoms: _654  and  _657
REMARK  270  A    between atoms: _657  and  _658
REMARK  271  A    between atoms: _668  and  _670
REMARK  272  A    between atoms: _670  and  _671
REMARK  273  A    between atoms: _674  and  _676
REMARK  274  A    between atoms: _676  and  _677
REMARK  275  A    between atoms: _679  and  _681
REMARK  276  A    between atoms: _681  and  _682
REMARK  277  A    between atoms: _685  and  _687
REMARK  278  A    between atoms: _687  and  _688
REMARK  279  A    between atoms: _691  and  _693
REMARK  280  A    between atoms: _693  and  _694
REMARK  281  A    between atoms: _693  and  _696
REMARK  282  A    between atoms: _696  and  _697
REMARK  283  A    between atoms: _697  and  _698
REMARK  284  A    between atoms: _701  and  _703
REMARK  285  A    between atoms: _703  and  _704
REMARK  286  A    between atoms: _703  and  _706
REMARK  287  A    between atoms: _706  and  _707
REMARK  288  A    between atoms: _712  and  _713
REMARK  289  A    between atoms: _715  and  _717
REMARK  290  A    between atoms: _717  and  _718
REMARK  291  A    between atoms: _717  and  _720
REMARK  292  A    between atoms: _720  and  _721
REMARK  293  A    between atoms: _726  and  _727
REMARK  294  A    between atoms: _729  and  _731
REMARK  295  A    between atoms: _731  and  _732
REMARK  296  A    between atoms: _731  and  _734
REMARK  297  A    between atoms: _734  and  _735
REMARK  298  A    between atoms: _735  and  _736
REMARK  299  A    between atoms: _736  and  _737
REMARK  300  A    between atoms: _746  and  _748
REMARK  301  A    between atoms: _748  and  _749
REMARK  302  A    between atoms: _752  and  _754
REMARK  303  A    between atoms: _754  and  _755
REMARK  304  A    between atoms: _754  and  _757
REMARK  305  A    between atoms: _757  and  _758
REMARK  306  A    between atoms: _763  and  _764
REMARK  307  A    between atoms: _766  and  _768
REMARK  308  A    between atoms: _768  and  _769
REMARK  309  A    between atoms: _768  and  _771
REMARK  310  A    between atoms: _771  and  _772
REMARK  311  A    between atoms: _775  and  _777
REMARK  312  A    between atoms: _777  and  _778
REMARK  313  A    between atoms: _777  and  _780
REMARK  314  A    between atoms: _780  and  _781
REMARK  315  A    between atoms: _784  and  _786
REMARK  316  A    between atoms: _786  and  _787
REMARK  317  A    between atoms: _786  and  _789
REMARK  318  A    between atoms: _789  and  _790
REMARK  319  A    between atoms: _791  and  _793
REMARK  320  A    between atoms: _793  and  _794
REMARK  321  A    between atoms: _793  and  _796
REMARK  322  A    between atoms: _799  and  _801
REMARK  323  A    between atoms: _801  and  _802
REMARK  324  A    between atoms: _801  and  _804
REMARK  325  A    between atoms: _804  and  _805
REMARK  326  A    between atoms: _805  and  _806
REMARK  327  A    between atoms: _809  and  _811
REMARK  328  A    between atoms: _811  and  _812
REMARK  329  A    between atoms: _811  and  _814
REMARK  330  A    between atoms: _814  and  _815
REMARK  331  A    between atoms: _825  and  _827
REMARK  332  A    between atoms: _827  and  _828
REMARK  333  A    between atoms: _827  and  _830
REMARK  334  A    between atoms: _830  and  _831
REMARK  335  A    between atoms: _834  and  _836
REMARK  336  A    between atoms: _836  and  _837
REMARK  337  A    between atoms: _836  and  _839
REMARK  338  A    between atoms: _839  and  _840
REMARK  339  A    between atoms: _840  and  _841
REMARK  340  A    between atoms: _841  and  _842
REMARK  341  A    between atoms: _851  and  _853
REMARK  342  A    between atoms: _853  and  _854
REMARK  343  A    between atoms: _853  and  _856
REMARK  344  A    between atoms: _856  and  _857
REMARK  345  A    between atoms: _862  and  _863
REMARK                            x       y       z     vdW  Elec       q    Type
REMARK                         _______ _______ _______ _____ _____    ______ ____
ROOT
ATOM      1  C   TYR A   1      31.862  51.081 -22.077  0.00  0.00    +0.239 C 
ATOM      2  N   TYR A   2      31.387  50.122 -21.291  0.00  0.00    -0.298 N 
ATOM      3  H   TYR A   2      31.108  50.355 -20.317  0.00  0.00    +0.150 HD
ATOM      4  O   TYR A   1      32.174  50.893 -23.251  0.00  0.00    -0.274 OA
ENDROOT
BRANCH   1   5
ATOM      5  CA  TYR A   1      32.013  52.463 -21.433  0.00  0.00    +0.149 C 
BRANCH   5   6
ATOM      6  N   TYR A   1      30.874  52.777 -20.575  0.00  0.00    -0.238 NA
ATOM      7  H   TYR A   1      31.032  53.009 -19.574  0.00  0.00    +0.142 HD
ENDBRANCH   5   6
BRANCH   5   8
ATOM      8  CB  TYR A   1      33.322  52.463 -20.639  0.00  0.00    +0.053 C 
BRANCH   8   9
ATOM      9  CG  TYR A   1      33.858  53.810 -20.183  0.00  0.00    -0.020 A 
ATOM     10  CD2 TYR A   1      35.004  53.874 -19.394  0.00  0.00    -0.001 A 
ATOM     11  CE2 TYR A   1      35.510  55.083 -18.940  0.00  0.00    +0.036 A 
ATOM     12  CZ  TYR A   1      34.863  56.267 -19.275  0.00  0.00    +0.134 A 
ATOM     13  CE1 TYR A   1      33.717  56.244 -20.066  0.00  0.00    +0.036 A 
ATOM     14  CD1 TYR A   1      33.218  55.012 -20.519  0.00  0.00    -0.001 A 
BRANCH  12  15
ATOM     15  OH  TYR A   1      35.370  57.453 -18.792  0.00  0.00    -0.506 OA
ATOM     16  HH  TYR A   1      35.366  57.434 -17.802  0.00  0.00    +0.292 HD
ENDBRANCH  12  15
ENDBRANCH   8   9
ENDBRANCH   5   8
ENDBRANCH   1   5
BRANCH   2  17
ATOM     17  CA  TYR A   2      31.247  48.747 -21.763  0.00  0.00    +0.141 C 
BRANCH  17  18
ATOM     18  C   TYR A   2      29.851  48.363 -22.262  0.00  0.00    +0.227 C 
ATOM     19  O   TYR A   2      29.629  47.223 -22.686  0.00  0.00    -0.286 OA
ENDBRANCH  17  18
BRANCH  17  20
ATOM     20  CB  TYR A   2      31.685  47.803 -20.639  0.00  0.00    +0.054 C 
BRANCH  20  21
ATOM     21  CG  TYR A   2      33.169  47.833 -20.348  0.00  0.00    -0.020 A 
ATOM     22  CD2 TYR A   2      33.665  48.473 -19.213  0.00  0.00    -0.001 A 
ATOM     23  CE2 TYR A   2      35.019  48.490 -18.929  0.00  0.00    +0.036 A 
ATOM     24  CZ  TYR A   2      35.904  47.859 -19.782  0.00  0.00    +0.134 A 
ATOM     25  CE1 TYR A   2      35.444  47.213 -20.923  0.00  0.00    +0.036 A 
ATOM     26  CD1 TYR A   2      34.081  47.207 -21.199  0.00  0.00    -0.001 A 
BRANCH  24  27
ATOM     27  OH  TYR A   2      37.241  47.860 -19.494  0.00  0.00    -0.506 OA
ATOM     28  HH  TYR A   2      37.730  47.369 -20.201  0.00  0.00    +0.292 HD
ENDBRANCH  24  27
ENDBRANCH  20  21
ENDBRANCH  17  20
ENDBRANCH   2  17
TORSDOF 10
REMARK  Name = ../refined-set-2016/1fzj/1fzj_pocket.pdb
REMARK  345 active torsions:
REMARK  status: ('A' for Active; 'I' for Inactive)
REMARK    1  A    between atoms: _1  and  _3
REMARK    2  A    between atoms: _3  and  _4
REMARK    3  A    between atoms: _3  and  _6
REMARK    4  A    between atoms: _6  and  _7
REMARK    5  A    between atoms: _10  and  _12
REMARK    6  A    between atoms: _12  and  _13
REMARK    7  A    between atoms: _12  and  _15
REMARK    8  A    between atoms: _15  and  _16
REMARK    9  A    between atoms: _16  and  _17
REMARK   10  A    between atoms: _17  and  _18
REMARK   11  A    between atoms: _27  and  _29
REMARK   12  A    between atoms: _29  and  _30
REMARK   13  A    between atoms: _29  and  _32
REMARK   14  A    between atoms: _32  and  _33
REMARK   15  A    between atoms: _38  and  _39
REMARK   16  A    between atoms: _41  and  _43
REMARK   17  A    between atoms: _43  and  _44
REMARK   18  A    between atoms: _43  and  _46
REMARK   19  A    between atoms: _46  and  _47
REMARK   20  A    between atoms: _53  and  _55
REMARK   21  A    between atoms: _55  and  _56
REMARK   22  A    between atoms: _55  and  _58
REMARK   23  A    between atoms: _61  and  _63
REMARK   24  A    between atoms: _63  and  _64
REMARK   25  A    between atoms: _63  and  _66
REMARK   26  A    between atoms: _66  and  _67
REMARK   27  A    between atoms: _70  and  _72
REMARK   28  A    between atoms: _72  and  _73
REMARK   29  A    between atoms: _72  and  _75
REMARK   30  A    between atoms: _75  and  _76
REMARK   31  A    between atoms: _81  and  _82
REMARK   32  A    between atoms: _84  and  _86
REMARK   33  A    between atoms: _86  and  _87
REMARK   34  A    between atoms: _86  and  _89
REMARK   35  A    between atoms: _89  and  _90
REMARK   36  A    between atoms: _90  and  _91
REMARK   37  A    between atoms: _93  and  _95
REMARK   38  A    between atoms: _95  and  _96
REMARK   39  A    between atoms: _95  and  _98
REMARK   40  A    between atoms: _98  and  _99
REMARK   41  A    between atoms: _99  and  _100
REMARK   42  A    between atoms: _103  and  _105
REMARK   43  A    between atoms: _105  and  _106
REMARK   44  A    between atoms: _105  and  _108
REMARK   45  A    between atoms: _111  and  _113
REMARK   46  A    between atoms: _113  and  _114
REMARK   47  A    between atoms: _113  and  _116
REMARK   48  A    between atoms: _119  and  _121
REMARK   49  A    between atoms: _121  and  _122
REMARK   50  A    between atoms: _121  and  _124
REMARK   51  A    between atoms: _124  and  _125
REMARK   52  A    between atoms: _131  and  _133
REMARK   53  A    between atoms: _133  and  _134
REMARK   54  A    between atoms: _133  and  _136
REMARK   55  A    between atoms: _139  and  _141
REMARK   56  A    between atoms: _141  and  _142
REMARK   57  A    between atoms: _141  and  _144
REMARK   58  A    between atoms: _144  and  _145
REMARK   59  A    between atoms: _150  and  _151
REMARK   60  A    between atoms: _153  and  _155
REMARK   61  A    between atoms: _155  and  _156
REMARK   62  A    between atoms: _155  and  _158
REMARK   63  A    between atoms: _158  and  _159
REMARK   64  A    between atoms: _159  and  _160
REMARK   65  A    between atoms: _162  and  _164
REMARK   66  A    between atoms: _164  and  _165
REMARK   67  A    between atoms: _164  and  _167
REMARK   68  A    between atoms: _167  and  _168
REMARK   69  A    between atoms: _168  and  _169
REMARK   70  A    between atoms: _172  and  _174
REMARK   71  A    between atoms: _174  and  _175
REMARK   72  A    between atoms: _174  and  _177
REMARK   73  A    between atoms: _177  and  _178
REMARK   74  A    between atoms: _178  and  _179
REMARK   75  A    between atoms: _182  and  _184
REMARK   76  A    between atoms: _184  and  _185
REMARK   77  A    between atoms: _184  and  _187
REMARK   78  A    between atoms: _187  and  _188
REMARK   79  A    between atoms: _193  and  _194
REMARK   80  A    between atoms: _196  and  _198
REMARK   81  A    between atoms: _198  and  _199
REMARK   82  A    between atoms: _198  and  _201
REMARK   83  A    between atoms: _201  and  _202
REMARK   84  A    between atoms: _212  and  _214
REMARK   85  A    between atoms: _214  and  _215
REMARK   86  A    between atoms: _214  and  _217
REMARK   87  A    between atoms: _217  and  _218
REMARK   88  A    between atoms: _218  and  _219
REMARK   89  A    between atoms: _222  and  _224
REMARK   90  A    between atoms: _224  and  _225
REMARK   91  A    between atoms: _224  and  _227
REMARK   92  A    between atoms: _227  and  _228
REMARK   93  A    between atoms: _228  and  _229
REMARK   94  A    between atoms: _229  and  _230
REMARK   95  A    between atoms: _239  and  _241
REMARK   96  A    between atoms: _241  and  _242
REMARK   97  A    between atoms: _241  and  _244
REMARK   98  A    between atoms: _244  and  _245
REMARK   99  A    between atoms: _245  and  _246
REMARK  100  A    between atoms: _249  and  _251
REMARK  101  A    between atoms: _251  and  _252
REMARK  102  A    between atoms: _251  and  _254
REMARK  103  A    between atoms: _254  and  _255
REMARK  104  A    between atoms: _258  and  _260
REMARK  105  A    between atoms: _260  and  _261
REMARK  106  A    between atoms: _260  and  _263
REMARK  107  A    between atoms: _263  and  _264
REMARK  108  A    between atoms: _264  and  _265
REMARK  109  A    between atoms: _270  and  _272
REMARK  110  A    between atoms: _272  and  _273
REMARK  111  A    between atoms: _272  and  _275
REMARK  112  A    between atoms: _275  and  _276
REMARK  113  A    between atoms: _276  and  _277
REMARK  114  A    between atoms: _277  and  _278
REMARK  115  A    between atoms: _278  and  _279
REMARK  116  A    between atoms: _283  and  _285
REMARK  117  A    between atoms: _285  and  _286
REMARK  118  A    between atoms: _289  and  _291
REMARK  119  A    between atoms: _291  and  _292
REMARK  120  A    between atoms: _294  and  _296
REMARK  121  A    between atoms: _296  and  _297
REMARK  122  A    between atoms: _296  and  _299
REMARK  123  A    between atoms: _299  and  _300
REMARK  124  A    between atoms: _305  and  _307
REMARK  125  A    between atoms: _307  and  _308
REMARK  126  A    between atoms: _307  and  _310
REMARK  127  A    between atoms: _310  and  _311
REMARK  128  A    between atoms: _311  and  _312
REMARK  129  A    between atoms: _315  and  _317
REMARK  130  A    between atoms: _317  and  _318
REMARK  131  A    between atoms: _317  and  _320
REMARK  132  A    between atoms: _320  and  _321
REMARK  133  A    between atoms: _323  and  _325
REMARK  134  A    between atoms: _325  and  _326
REMARK  135  A    between atoms: _325  and  _328
REMARK  136  A    between atoms: _328  and  _329
REMARK  137  A    between atoms: _335  and  _337
REMARK  138  A    between atoms: _337  and  _338
REMARK  139  A    between atoms: _337  and  _340
REMARK  140  A    between atoms: _343  and  _345
REMARK  141  A    between atoms: _345  and  _346
REMARK  142  A    between atoms: _345  and  _348
REMARK  143  A    between atoms: _348  and  _349
REMARK  144  A    between atoms: _352  and  _354
REMARK  145  A    between atoms: _354  and  _355
REMARK  146  A    between atoms: _354  and  _357
REMARK  147  A    between atoms: _357  and  _358
REMARK  148  A    between atoms: _361  and  _363
REMARK  149  A    between atoms: _363  and  _364
REMARK  150  A    between atoms: _363  and  _366
REMARK  151  A    between atoms: _366  and  _367
REMARK  152  A    between atoms: _370  and  _372
REMARK  153  A    between atoms: _372  and  _373
REMARK  154  A    between atoms: _372  and  _375
REMARK  155  A    between atoms: _375  and  _376
REMARK  156  A    between atoms: _379  and  _381
REMARK  157  A    between atoms: _381  and  _382
REMARK  158  A    between atoms: _381  and  _384
REMARK  159  A    between atoms: _384  and  _385
REMARK  160  A    between atoms: _390  and  _391
REMARK  161  A    between atoms: _393  and  _395
REMARK  162  A    between atoms: _395  and  _396
REMARK  163  A    between atoms: _395  and  _398
REMARK  164  A    between atoms: _398  and  _399
REMARK  165  A    between atoms: _404  and  _405
REMARK  166  A    between atoms: _407  and  _409
REMARK  167  A    between atoms: _409  and  _410
REMARK  168  A    between atoms: _409  and  _412
REMARK  169  A    between atoms: _412  and  _413
REMARK  170  A    between atoms: _416  and  _418
REMARK  171  A    between atoms: _418  and  _419
REMARK  172  A    between atoms: _418  and  _421
REMARK  173  A    between atoms: _421  and  _422
REMARK  174  A    between atoms: _422  and  _423
REMARK  175  A    between atoms: _428  and  _430
REMARK  176  A    between atoms: _430  and  _431
REMARK  177  A    between atoms: _430  and  _433
REMARK  178  A    between atoms: _436  and  _438
REMARK  179  A    between atoms: _438  and  _439
REMARK  180  A    between atoms: _438  and  _441
REMARK  181  A    between atoms: _441  and  _442
REMARK  182  A    between atoms: _445  and  _447
REMARK  183  A    between atoms: _447  and  _448
REMARK  184  A    between atoms: _447  and  _450
REMARK  185  A    between atoms: _450  and  _451
REMARK  186  A    between atoms: _453  and  _455
REMARK  187  A    between atoms: _455  and  _456
REMARK  188  A    between atoms: _458  and  _460
REMARK  189  A    between atoms: _460  and  _461
REMARK  190  A    between atoms: _460  and  _463
REMARK  191  A    between atoms: _463  and  _464
REMARK  192  A    between atoms: _464  and  _790
REMARK  193  A    between atoms: _465  and  _467
REMARK  194  A    between atoms: _467  and  _468
REMARK  195  A    between atoms: _467  and  _470
REMARK  196  A    between atoms: _470  and  _471
REMARK  197  A    between atoms: _476  and  _477
REMARK  198  A    between atoms: _479  and  _481
REMARK  199  A    between atoms: _481  and  _482
REMARK  200  A    between atoms: _481  and  _484
REMARK  201  A    between atoms: _484  and  _485
REMARK  202  A    between atoms: _485  and  _486
REMARK  203  A    between atoms: _491  and  _493
REMARK  204  A    between atoms: _493  and  _494
REMARK  205  A    between atoms: _493  and  _496
REMARK  206  A    between atoms: _496  and  _497
REMARK  207  A    between atoms: _497  and  _498
REMARK  208  A    between atoms: _503  and  _505
REMARK  209  A    between atoms: _505  and  _506
REMARK  210  A    between atoms: _505  and  _508
REMARK  211  A    between atoms: _508  and  _509
REMARK  212  A    between atoms: _514  and  _515
REMARK  213  A    between atoms: _517  and  _519
REMARK  214  A    between atoms: _519  and  _520
REMARK  215  A    between atoms: _523  and  _525
REMARK  216  A    between atoms: _525  and  _526
REMARK  217  A    between atoms: _525  and  _528
REMARK  218  A    between atoms: _528  and  _529
REMARK  219  A    between atoms: _534  and  _535
REMARK  220  A    between atoms: _537  and  _539
REMARK  221  A    between atoms: _539  and  _540
REMARK  222  A    between atoms: _539  and  _542
REMARK  223  A    between atoms: _542  and  _543
REMARK  224  A    between atoms: _548  and  _549
REMARK  225  A    between atoms: _551  and  _553
REMARK  226  A    between atoms: _553  and  _554
REMARK  227  A    between atoms: _553  and  _556
REMARK  228  A    between atoms: _556  and  _557
REMARK  229  A    between atoms: _560  and  _562
REMARK  230  A    between atoms: _562  and  _563
REMARK  231  A    between atoms: _562  and  _565
REMARK  232  A    between atoms: _565  and  _566
REMARK  233  A    between atoms: _576  and  _578
REMARK  234  A    between atoms: _578  and  _579
REMARK  235  A    between atoms: _582  and  _584
REMARK  236  A    between atoms: _584  and  _585
REMARK  237  A    between atoms: _588  and  _590
REMARK  238  A    between atoms: _590  and  _591
REMARK  239  A    between atoms: _590  and  _593
REMARK  240  A    between atoms: _593  and  _594
REMARK  241  A    between atoms: _597  and  _599
REMARK  242  A    between atoms: _599  and  _600
REMARK  243  A    between atoms: _599  and  _602
REMARK  244  A    between atoms: _602  and  _603
REMARK  245  A    between atoms: _606  and  _608
REMARK  246  A    between atoms: _608  and  _609
REMARK  247  A    between atoms: _608  and  _611
REMARK  248  A    between atoms: _611  and  _612
REMARK  249  A    between atoms: _615  and  _617
REMARK  250  A    between atoms: _617  and  _618
REMARK  251  A    between atoms: _617  and  _620
REMARK  252  A    between atoms: _620  and  _621
REMARK  253  A    between atoms: _621  and  _622
REMARK  254  A    between atoms: _622  and  _623
REMARK  255  A    between atoms: _623  and  _624
REMARK  256  A    between atoms: _628  and  _630
REMARK  257  A    between atoms: _630  and  _631
REMARK  258  A    between atoms: _630  and  _633
REMARK  259  A    between atoms: _633  and  _634
REMARK  260  A    between atoms: _639  and  _641
REMARK  261  A    between atoms: _641  and  _642
REMARK  262  A    between atoms: _641  and  _644
REMARK  263  A    between atoms: _644  and  _645
REMARK  264  A    between atoms: _645  and  _646
REMARK  265  A    between atoms: _646  and  _647
REMARK  266  A    between atoms: _647  and  _648
REMARK  267  A    between atoms: _652  and  _654
REMARK  268  A    between atoms: _654  and  _655
REMARK  269  A    between atoms: _654  and  _657
REMARK  270  A    between atoms: _657  and  _658
REMARK  271  A    between atoms: _668  and  _670
REMARK  272  A    between atoms: _670  and  _671
REMARK  273  A    between atoms: _674  and  _676
REMARK  274  A    between atoms: _676  and  _677
REMARK  275  A    between atoms: _679  and  _681
REMARK  276  A    between atoms: _681  and  _682
REMARK  277  A    between atoms: _685  and  _687
REMARK  278  A    between atoms: _687  and  _688
REMARK  279  A    between atoms: _691  and  _693
REMARK  280  A    between atoms: _693  and  _694
REMARK  281  A    between atoms: _693  and  _696
REMARK  282  A    between atoms: _696  and  _697
REMARK  283  A    between atoms: _697  and  _698
REMARK  284  A    between atoms: _701  and  _703
REMARK  285  A    between atoms: _703  and  _704
REMARK  286  A    between atoms: _703  and  _706
REMARK  287  A    between atoms: _706  and  _707
REMARK  288  A    between atoms: _712  and  _713
REMARK  289  A    between atoms: _715  and  _717
REMARK  290  A    between atoms: _717  and  _718
REMARK  291  A    between atoms: _717  and  _720
REMARK  292  A    between atoms: _720  and  _721
REMARK  293  A    between atoms: _726  and  _727
REMARK  294  A    between atoms: _729  and  _731
REMARK  295  A    between atoms: _731  and  _732
REMARK  296  A    between atoms: _731  and  _734
REMARK  297  A    between atoms: _734  and  _735
REMARK  298  A    between atoms: _735  and  _736
REMARK  299  A    between atoms: _736  and  _737
REMARK  300  A    between atoms: _746  and  _748
REMARK  301  A    between atoms: _748  and  _749
REMARK  302  A    between atoms: _752  and  _754
REMARK  303  A    between atoms: _754  and  _755
REMARK  304  A    between atoms: _754  and  _757
REMARK  305  A    between atoms: _757  and  _758
REMARK  306  A    between atoms: _763  and  _764
REMARK  307  A    between atoms: _766  and  _768
REMARK  308  A    between atoms: _768  and  _769
REMARK  309  A    between atoms: _768  and  _771
REMARK  310  A    between atoms: _771  and  _772
REMARK  311  A    between atoms: _775  and  _777
REMARK  312  A    between atoms: _777  and  _778
REMARK  313  A    between atoms: _777  and  _780
REMARK  314  A    between atoms: _780  and  _781
REMARK  315  A    between atoms: _784  and  _786
REMARK  316  A    between atoms: _786  and  _787
REMARK  317  A    between atoms: _786  and  _789
REMARK  318  A    between atoms: _789  and  _790
REMARK  319  A    between atoms: _791  and  _793
REMARK  320  A    between atoms: _793  and  _794
REMARK  321  A    between atoms: _793  and  _796
REMARK  322  A    between atoms: _799  and  _801
REMARK  323  A    between atoms: _801  and  _802
REMARK  324  A    between atoms: _801  and  _804
REMARK  325  A    between atoms: _804  and  _805
REMARK  326  A    between atoms: _805  and  _806
REMARK  327  A    between atoms: _809  and  _811
REMARK  328  A    between atoms: _811  and  _812
REMARK  329  A    between atoms: _811  and  _814
REMARK  330  A    between atoms: _814  and  _815
REMARK  331  A    between atoms: _825  and  _827
REMARK  332  A    between atoms: _827  and  _828
REMARK  333  A    between atoms: _827  and  _830
REMARK  334  A    between atoms: _830  and  _831
REMARK  335  A    between atoms: _834  and  _836
REMARK  336  A    between atoms: _836  and  _837
REMARK  337  A    between atoms: _836  and  _839
REMARK  338  A    between atoms: _839  and  _840
REMARK  339  A    between atoms: _840  and  _841
REMARK  340  A    between atoms: _841  and  _842
REMARK  341  A    between atoms: _851  and  _853
REMARK  342  A    between atoms: _853  and  _854
REMARK  343  A    between atoms: _853  and  _856
REMARK  344  A    between atoms: _856  and  _857
REMARK  345  A    between atoms: _862  and  _863
REMARK                            x       y       z     vdW  Elec       q    Type
REMARK                         _______ _______ _______ _____ _____    ______ ____
ROOT
ATOM      1  SG  CYS A   2      53.053  55.333  -0.713  0.00  0.00    -0.080 S 
ENDROOT
BRANCH   1   2
ATOM      2  SG  CYS A   7      54.931  54.543  -0.573  0.00  0.00    -0.080 S 
BRANCH   2   3
ATOM      3  CB  CYS A   7      55.383  54.181  -2.305  0.00  0.00    +0.096 C 
BRANCH   3   4
ATOM      4  CA  CYS A   7      55.193  52.711  -2.749  0.00  0.00    +0.149 C 
BRANCH   4   6
ATOM      5  C   LEU A   6      52.944  52.261  -3.502  0.00  0.00    +0.243 C 
ATOM      6  N   CYS A   7      53.831  52.283  -2.520  0.00  0.00    -0.297 N 
ATOM      7  H   CYS A   7      53.543  51.987  -1.566  0.00  0.00    +0.150 HD
ATOM      8  O   LEU A   6      53.202  52.618  -4.649  0.00  0.00    -0.273 OA
BRANCH   5   9
ATOM      9  CA  LEU A   6      51.576  51.767  -3.113  0.00  0.00    +0.176 C 
BRANCH   9  12
ATOM     10  C   TRP A   5      49.352  51.385  -3.871  0.00  0.00    +0.243 C 
ATOM     11  O   TRP A   5      49.023  50.960  -2.759  0.00  0.00    -0.273 OA
ATOM     12  N   LEU A   6      50.577  51.799  -4.154  0.00  0.00    -0.295 N 
ATOM     13  H   LEU A   6      50.815  52.140  -5.107  0.00  0.00    +0.150 HD
BRANCH  10  14
ATOM     14  CA  TRP A   5      48.348  51.466  -4.982  0.00  0.00    +0.178 C 
BRANCH  14  16
ATOM     15  C   GLU A   4      47.211  49.543  -5.974  0.00  0.00    +0.241 C 
ATOM     16  N   TRP A   5      47.488  50.288  -4.911  0.00  0.00    -0.295 N 
ATOM     17  H   TRP A   5      47.077  50.023  -3.993  0.00  0.00    +0.150 HD
ATOM     18  O   GLU A   4      47.653  49.781  -7.099  0.00  0.00    -0.273 OA
BRANCH  15  19
ATOM     19  CA  GLU A   4      46.271  48.368  -5.732  0.00  0.00    +0.149 C 
BRANCH  19  22
ATOM     20  C   VAL A   3      43.904  48.603  -6.190  0.00  0.00    +0.241 C 
ATOM     21  O   VAL A   3      43.611  48.321  -5.036  0.00  0.00    -0.273 OA
ATOM     22  N   GLU A   4      45.153  48.596  -6.633  0.00  0.00    -0.297 N 
ATOM     23  H   GLU A   4      45.337  48.757  -7.644  0.00  0.00    +0.150 HD
BRANCH  20  24
ATOM     24  CA  VAL A   3      42.827  48.949  -7.209  0.00  0.00    +0.149 C 
BRANCH  24  26
ATOM     25  C   CYS A   2      40.971  47.745  -8.136  0.00  0.00    +0.241 C 
ATOM     26  N   VAL A   3      41.648  48.131  -7.070  0.00  0.00    -0.297 N 
ATOM     27  H   VAL A   3      41.328  47.843  -6.123  0.00  0.00    +0.150 HD
ATOM     28  O   CYS A   2      41.284  48.045  -9.290  0.00  0.00    -0.273 OA
BRANCH  25  29
ATOM     29  CA  CYS A   2      39.789  46.853  -7.860  0.00  0.00    +0.149 C 
BRANCH  29  32
ATOM     30  C   THR A   1      37.498  47.367  -8.419  0.00  0.00    +0.238 C 
ATOM     31  O   THR A   1      37.154  47.292  -7.238  0.00  0.00    -0.274 OA
ATOM     32  N   CYS A   2      38.741  47.156  -8.815  0.00  0.00    -0.297 N 
ATOM     33  H   CYS A   2      38.971  47.208  -9.828  0.00  0.00    +0.150 HD
BRANCH  30  34
ATOM     34  CA  THR A   1      36.487  47.703  -9.512  0.00  0.00    +0.145 C 
BRANCH  34  35
ATOM     35  N   THR A   1      35.322  46.897  -9.185  0.00  0.00    -0.238 NA
ATOM     36  H   THR A   1      34.800  47.075  -8.304  0.00  0.00    +0.142 HD
ENDBRANCH  34  35
BRANCH  34  37
ATOM     37  CB  THR A   1      36.215  49.242  -9.475  0.00  0.00    +0.025 C 
ATOM     38  CG2 THR A   1      37.570  49.979  -9.476  0.00  0.00    +0.002 C 
BRANCH  37  39
ATOM     39  CG1 THR A   1      35.344  49.662 -10.668  0.00  0.00    +0.002 C 
ATOM     40  CD1 THR A   1      34.888  51.150 -10.662  0.00  0.00    +0.000 C 
ENDBRANCH  37  39
ENDBRANCH  34  37
ENDBRANCH  30  34
ENDBRANCH  29  32
BRANCH  29  41
ATOM     41  CB  CYS A   2      40.260  45.383  -7.974  0.00  0.00    +0.039 C 
BRANCH  41  42
ATOM     42  CG  CYS A   2      39.286  44.350  -7.394  0.00  0.00    +0.087 C 
BRANCH  42  43
ATOM     43  CD  CYS A   2      39.625  42.924  -7.864  0.00  0.00    +0.219 C 
ATOM     44  NE2 CYS A   2      40.512  42.255  -7.136  0.00  0.00    -0.329 N 
ATOM     45 HE21 CYS A   2      40.924  42.692  -6.287  0.00  0.00    +0.145 HD
ATOM     46 HE22 CYS A   2      40.795  41.294  -7.415  0.00  0.00    +0.145 HD
ATOM     47  OE1 CYS A   2      39.108  42.451  -8.878  0.00  0.00    -0.275 OA
ENDBRANCH  42  43
ENDBRANCH  41  42
ENDBRANCH  29  41
ENDBRANCH  25  29
ENDBRANCH  24  26
BRANCH  24  48
ATOM     48  CB  VAL A   3      42.498  50.454  -7.013  0.00  0.00    +0.027 C 
ATOM     49  CG2 VAL A   3      43.703  51.301  -7.443  0.00  0.00    +0.002 C 
ATOM     50  CG1 VAL A   3      41.253  50.825  -7.781  0.00  0.00    +0.002 C 
ENDBRANCH  24  48
ENDBRANCH  20  24
ENDBRANCH  19  22
BRANCH  19  51
ATOM     51  CB  GLU A   4      47.009  47.016  -5.990  0.00  0.00    +0.027 C 
ATOM     52  CG2 GLU A   4      47.452  46.902  -7.449  0.00  0.00    +0.002 C 
BRANCH  51  53
ATOM     53  CG1 GLU A   4      48.215  46.916  -5.057  0.00  0.00    +0.002 C 
ATOM     54  CD1 GLU A   4      47.861  47.008  -3.585  0.00  0.00    +0.000 C 
ENDBRANCH  51  53
ENDBRANCH  19  51
ENDBRANCH  15  19
ENDBRANCH  14  16
BRANCH  14  55
ATOM     55  CB  TRP A   5      47.510  52.738  -4.773  0.00  0.00    +0.166 C 
BRANCH  55  56
ATOM     56  O   TRP A   5      46.421  52.777  -5.670  0.00  0.00    -0.380 OA
ATOM     57  H   TRP A   5      45.844  51.987  -5.521  0.00  0.00    +0.211 HD
ENDBRANCH  55  56
ENDBRANCH  14  55
ENDBRANCH  10  14
ENDBRANCH   9  12
ENDBRANCH   5   9
ENDBRANCH   4   6
BRANCH   4  58
ATOM     58  C   CYS A   7      56.095  51.809  -1.933  0.00  0.00    +0.228 C 
ATOM     59  O   CYS A   7      55.682  51.289  -0.901  0.00  0.00    -0.286 OA
ENDBRANCH   4  58
ENDBRANCH   3   4
ENDBRANCH   2   3
ENDBRANCH   1   2
BRANCH   1  60
ATOM     60  CB  CYS A   2      53.316  57.154  -0.838  0.00  0.00    +0.098 C 
BRANCH  60  61
ATOM     61  CA  CYS A   2      53.357  57.840   0.531  0.00  0.00    +0.160 C 
BRANCH  61  62
ATOM     62  N   CYS A   2      53.141  59.291   0.406  0.00  0.00    -0.296 N 
ATOM     63  C   THR A   1      53.071  60.048   1.494  0.00  0.00    +0.241 C 
ATOM     64  O   THR A   1      53.270  59.600   2.628  0.00  0.00    -0.274 OA
ATOM     65  H   CYS A   2      53.043  59.723  -0.535  0.00  0.00    +0.150 HD
BRANCH  63  66
ATOM     66  CA  THR A   1      52.761  61.545   1.295  0.00  0.00    +0.172 C 
BRANCH  66  67
ATOM     67  CB  THR A   1      51.258  61.704   0.924  0.00  0.00    +0.135 C 
ATOM     68  CG2 THR A   1      50.367  61.008   1.935  0.00  0.00    +0.034 C 
BRANCH  67  69
ATOM     69  OG1 THR A   1      50.912  63.101   0.911  0.00  0.00    -0.383 OA
ATOM     70  HG1 THR A   1      51.469  63.572   0.242  0.00  0.00    +0.210 HD
ENDBRANCH  67  69
ENDBRANCH  66  67
BRANCH  66  71
ATOM     71  N   THR A   1      53.601  62.220   0.317  0.00  0.00    -0.236 NA
ATOM     72  H   THR A   1      53.144  62.800  -0.415  0.00  0.00    +0.142 HD
ENDBRANCH  66  71
ENDBRANCH  63  66
ENDBRANCH  61  62
BRANCH  61  73
ATOM     73  C   CYS A   2      54.646  57.474   1.254  0.00  0.00    +0.242 C 
ATOM     74  O   CYS A   2      54.619  56.778   2.269  0.00  0.00    -0.273 OA
ATOM     75  N   VAL A   3      55.765  57.957   0.743  0.00  0.00    -0.297 N 
ATOM     76  H   VAL A   3      55.713  58.557  -0.105  0.00  0.00    +0.150 HD
BRANCH  75  77
ATOM     77  CA  VAL A   3      57.063  57.677   1.326  0.00  0.00    +0.149 C 
BRANCH  77  78
ATOM     78  C   VAL A   3      57.213  58.192   2.753  0.00  0.00    +0.241 C 
ATOM     79  O   VAL A   3      57.753  57.509   3.618  0.00  0.00    -0.273 OA
ATOM     80  N   GLU A   4      56.714  59.396   3.017  0.00  0.00    -0.297 N 
ATOM     81  H   GLU A   4      56.221  59.931   2.274  0.00  0.00    +0.150 HD
BRANCH  80  82
ATOM     82  CA  GLU A   4      56.860  59.964   4.350  0.00  0.00    +0.149 C 
BRANCH  82  83
ATOM     83  C   GLU A   4      56.042  59.267   5.416  0.00  0.00    +0.241 C 
ATOM     84  O   GLU A   4      56.493  59.123   6.548  0.00  0.00    -0.273 OA
ATOM     85  N   TRP A   5      54.831  58.859   5.079  0.00  0.00    -0.297 N 
ATOM     86  H   TRP A   5      54.465  59.028   4.120  0.00  0.00    +0.150 HD
BRANCH  85  87
ATOM     87  CA  TRP A   5      54.023  58.175   6.060  0.00  0.00    +0.153 C 
BRANCH  87  88
ATOM     88  C   TRP A   5      54.516  56.727   6.216  0.00  0.00    +0.241 C 
ATOM     89  O   TRP A   5      54.452  56.173   7.309  0.00  0.00    -0.273 OA
ATOM     90  N   LEU A   6      55.024  56.134   5.137  0.00  0.00    -0.298 N 
ATOM     91  H   LEU A   6      55.037  56.635   4.226  0.00  0.00    +0.150 HD
BRANCH  90  92
ATOM     92  CA  LEU A   6      55.566  54.770   5.235  0.00  0.00    +0.137 C 
BRANCH  92  93
ATOM     93  C   LEU A   6      56.724  54.804   6.236  0.00  0.00    +0.227 C 
ATOM     94  O   LEU A   6      56.817  53.950   7.130  0.00  0.00    -0.286 OA
ENDBRANCH  92  93
BRANCH  92  95
ATOM     95  CB  LEU A   6      56.043  54.270   3.865  0.00  0.00    +0.028 C 
BRANCH  95  96
ATOM     96  CG  LEU A   6      56.871  52.967   3.859  0.00  0.00    +0.002 C 
ATOM     97  CD2 LEU A   6      56.162  51.889   4.680  0.00  0.00    +0.000 C 
ATOM     98  CD1 LEU A   6      57.078  52.513   2.432  0.00  0.00    +0.000 C 
ENDBRANCH  95  96
ENDBRANCH  92  95
ENDBRANCH  90  92
ENDBRANCH  87  88
BRANCH  87  99
ATOM     99  CB  TRP A   5      52.544  58.246   5.684  0.00  0.00    +0.057 C 
BRANCH  99 100
ATOM    100  CG  TRP A   5      51.945  59.564   6.117  0.00  0.00    -0.002 A 
ATOM    101  CD2 TRP A   5      51.409  59.867   7.406  0.00  0.00    +0.013 A 
ATOM    102  CE3 TRP A   5      51.195  59.113   8.569  0.00  0.00    +0.001 A 
ATOM    103  CZ3 TRP A   5      50.639  59.739   9.677  0.00  0.00    +0.000 A 
ATOM    104  CH2 TRP A   5      50.293  61.109   9.644  0.00  0.00    +0.001 A 
ATOM    105  CZ2 TRP A   5      50.491  61.870   8.521  0.00  0.00    +0.017 A 
ATOM    106  CE2 TRP A   5      51.051  61.241   7.404  0.00  0.00    +0.056 A 
ATOM    107  NE1 TRP A   5      51.355  61.745   6.166  0.00  0.00    -0.352 N 
ATOM    108  HE1 TRP A   5      51.205  62.727   5.859  0.00  0.00    +0.166 HD
ATOM    109  CD1 TRP A   5      51.892  60.736   5.393  0.00  0.00    +0.068 A 
ENDBRANCH  99 100
ENDBRANCH  87  99
ENDBRANCH  85  87
ENDBRANCH  82  83
BRANCH  82 110
ATOM    110  CB  GLU A   4      56.514  61.462   4.317  0.00  0.00    +0.041 C 
BRANCH 110 111
ATOM    111  CG  GLU A   4      57.651  62.305   3.756  0.00  0.00    +0.116 C 
BRANCH 111 112
ATOM    112  CD  GLU A   4      57.189  63.672   3.299  0.00  0.00    +0.365 C 
ATOM    113  OE2 GLU A   4      56.216  64.186   3.879  0.00  0.00    -0.246 OA
ATOM    114  OE1 GLU A   4      57.807  64.221   2.362  0.00  0.00    -0.246 OA
ENDBRANCH 111 112
ENDBRANCH 110 111
ENDBRANCH  82 110
ENDBRANCH  80  82
ENDBRANCH  77  78
BRANCH  77 115
ATOM    115  CB  VAL A   3      58.181  58.273   0.448  0.00  0.00    +0.027 C 
ATOM    116  CG2 VAL A   3      59.461  58.399   1.228  0.00  0.00    +0.002 C 
ATOM    117  CG1 VAL A   3      58.411  57.383  -0.757  0.00  0.00    +0.002 C 
ENDBRANCH  77 115
ENDBRANCH  75  77
ENDBRANCH  61  73
ENDBRANCH  60  61
ENDBRANCH   1  60
TORSDOF 51
REMARK  Name = ../refined-set-2016/1fzj/1fzj_pocket.pdb
REMARK  345 active torsions:
REMARK  status: ('A' for Active; 'I' for Inactive)
REMARK    1  A    between atoms: _1  and  _3
REMARK    2  A    between atoms: _3  and  _4
REMARK    3  A    between atoms: _3  and  _6
REMARK    4  A    between atoms: _6  and  _7
REMARK    5  A    between atoms: _10  and  _12
REMARK    6  A    between atoms: _12  and  _13
REMARK    7  A    between atoms: _12  and  _15
REMARK    8  A    between atoms: _15  and  _16
REMARK    9  A    between atoms: _16  and  _17
REMARK   10  A    between atoms: _17  and  _18
REMARK   11  A    between atoms: _27  and  _29
REMARK   12  A    between atoms: _29  and  _30
REMARK   13  A    between atoms: _29  and  _32
REMARK   14  A    between atoms: _32  and  _33
REMARK   15  A    between atoms: _38  and  _39
REMARK   16  A    between atoms: _41  and  _43
REMARK   17  A    between atoms: _43  and  _44
REMARK   18  A    between atoms: _43  and  _46
REMARK   19  A    between atoms: _46  and  _47
REMARK   20  A    between atoms: _53  and  _55
REMARK   21  A    between atoms: _55  and  _56
REMARK   22  A    between atoms: _55  and  _58
REMARK   23  A    between atoms: _61  and  _63
REMARK   24  A    between atoms: _63  and  _64
REMARK   25  A    between atoms: _63  and  _66
REMARK   26  A    between atoms: _66  and  _67
REMARK   27  A    between atoms: _70  and  _72
REMARK   28  A    between atoms: _72  and  _73
REMARK   29  A    between atoms: _72  and  _75
REMARK   30  A    between atoms: _75  and  _76
REMARK   31  A    between atoms: _81  and  _82
REMARK   32  A    between atoms: _84  and  _86
REMARK   33  A    between atoms: _86  and  _87
REMARK   34  A    between atoms: _86  and  _89
REMARK   35  A    between atoms: _89  and  _90
REMARK   36  A    between atoms: _90  and  _91
REMARK   37  A    between atoms: _93  and  _95
REMARK   38  A    between atoms: _95  and  _96
REMARK   39  A    between atoms: _95  and  _98
REMARK   40  A    between atoms: _98  and  _99
REMARK   41  A    between atoms: _99  and  _100
REMARK   42  A    between atoms: _103  and  _105
REMARK   43  A    between atoms: _105  and  _106
REMARK   44  A    between atoms: _105  and  _108
REMARK   45  A    between atoms: _111  and  _113
REMARK   46  A    between atoms: _113  and  _114
REMARK   47  A    between atoms: _113  and  _116
REMARK   48  A    between atoms: _119  and  _121
REMARK   49  A    between atoms: _121  and  _122
REMARK   50  A    between atoms: _121  and  _124
REMARK   51  A    between atoms: _124  and  _125
REMARK   52  A    between atoms: _131  and  _133
REMARK   53  A    between atoms: _133  and  _134
REMARK   54  A    between atoms: _133  and  _136
REMARK   55  A    between atoms: _139  and  _141
REMARK   56  A    between atoms: _141  and  _142
REMARK   57  A    between atoms: _141  and  _144
REMARK   58  A    between atoms: _144  and  _145
REMARK   59  A    between atoms: _150  and  _151
REMARK   60  A    between atoms: _153  and  _155
REMARK   61  A    between atoms: _155  and  _156
REMARK   62  A    between atoms: _155  and  _158
REMARK   63  A    between atoms: _158  and  _159
REMARK   64  A    between atoms: _159  and  _160
REMARK   65  A    between atoms: _162  and  _164
REMARK   66  A    between atoms: _164  and  _165
REMARK   67  A    between atoms: _164  and  _167
REMARK   68  A    between atoms: _167  and  _168
REMARK   69  A    between atoms: _168  and  _169
REMARK   70  A    between atoms: _172  and  _174
REMARK   71  A    between atoms: _174  and  _175
REMARK   72  A    between atoms: _174  and  _177
REMARK   73  A    between atoms: _177  and  _178
REMARK   74  A    between atoms: _178  and  _179
REMARK   75  A    between atoms: _182  and  _184
REMARK   76  A    between atoms: _184  and  _185
REMARK   77  A    between atoms: _184  and  _187
REMARK   78  A    between atoms: _187  and  _188
REMARK   79  A    between atoms: _193  and  _194
REMARK   80  A    between atoms: _196  and  _198
REMARK   81  A    between atoms: _198  and  _199
REMARK   82  A    between atoms: _198  and  _201
REMARK   83  A    between atoms: _201  and  _202
REMARK   84  A    between atoms: _212  and  _214
REMARK   85  A    between atoms: _214  and  _215
REMARK   86  A    between atoms: _214  and  _217
REMARK   87  A    between atoms: _217  and  _218
REMARK   88  A    between atoms: _218  and  _219
REMARK   89  A    between atoms: _222  and  _224
REMARK   90  A    between atoms: _224  and  _225
REMARK   91  A    between atoms: _224  and  _227
REMARK   92  A    between atoms: _227  and  _228
REMARK   93  A    between atoms: _228  and  _229
REMARK   94  A    between atoms: _229  and  _230
REMARK   95  A    between atoms: _239  and  _241
REMARK   96  A    between atoms: _241  and  _242
REMARK   97  A    between atoms: _241  and  _244
REMARK   98  A    between atoms: _244  and  _245
REMARK   99  A    between atoms: _245  and  _246
REMARK  100  A    between atoms: _249  and  _251
REMARK  101  A    between atoms: _251  and  _252
REMARK  102  A    between atoms: _251  and  _254
REMARK  103  A    between atoms: _254  and  _255
REMARK  104  A    between atoms: _258  and  _260
REMARK  105  A    between atoms: _260  and  _261
REMARK  106  A    between atoms: _260  and  _263
REMARK  107  A    between atoms: _263  and  _264
REMARK  108  A    between atoms: _264  and  _265
REMARK  109  A    between atoms: _270  and  _272
REMARK  110  A    between atoms: _272  and  _273
REMARK  111  A    between atoms: _272  and  _275
REMARK  112  A    between atoms: _275  and  _276
REMARK  113  A    between atoms: _276  and  _277
REMARK  114  A    between atoms: _277  and  _278
REMARK  115  A    between atoms: _278  and  _279
REMARK  116  A    between atoms: _283  and  _285
REMARK  117  A    between atoms: _285  and  _286
REMARK  118  A    between atoms: _289  and  _291
REMARK  119  A    between atoms: _291  and  _292
REMARK  120  A    between atoms: _294  and  _296
REMARK  121  A    between atoms: _296  and  _297
REMARK  122  A    between atoms: _296  and  _299
REMARK  123  A    between atoms: _299  and  _300
REMARK  124  A    between atoms: _305  and  _307
REMARK  125  A    between atoms: _307  and  _308
REMARK  126  A    between atoms: _307  and  _310
REMARK  127  A    between atoms: _310  and  _311
REMARK  128  A    between atoms: _311  and  _312
REMARK  129  A    between atoms: _315  and  _317
REMARK  130  A    between atoms: _317  and  _318
REMARK  131  A    between atoms: _317  and  _320
REMARK  132  A    between atoms: _320  and  _321
REMARK  133  A    between atoms: _323  and  _325
REMARK  134  A    between atoms: _325  and  _326
REMARK  135  A    between atoms: _325  and  _328
REMARK  136  A    between atoms: _328  and  _329
REMARK  137  A    between atoms: _335  and  _337
REMARK  138  A    between atoms: _337  and  _338
REMARK  139  A    between atoms: _337  and  _340
REMARK  140  A    between atoms: _343  and  _345
REMARK  141  A    between atoms: _345  and  _346
REMARK  142  A    between atoms: _345  and  _348
REMARK  143  A    between atoms: _348  and  _349
REMARK  144  A    between atoms: _352  and  _354
REMARK  145  A    between atoms: _354  and  _355
REMARK  146  A    between atoms: _354  and  _357
REMARK  147  A    between atoms: _357  and  _358
REMARK  148  A    between atoms: _361  and  _363
REMARK  149  A    between atoms: _363  and  _364
REMARK  150  A    between atoms: _363  and  _366
REMARK  151  A    between atoms: _366  and  _367
REMARK  152  A    between atoms: _370  and  _372
REMARK  153  A    between atoms: _372  and  _373
REMARK  154  A    between atoms: _372  and  _375
REMARK  155  A    between atoms: _375  and  _376
REMARK  156  A    between atoms: _379  and  _381
REMARK  157  A    between atoms: _381  and  _382
REMARK  158  A    between atoms: _381  and  _384
REMARK  159  A    between atoms: _384  and  _385
REMARK  160  A    between atoms: _390  and  _391
REMARK  161  A    between atoms: _393  and  _395
REMARK  162  A    between atoms: _395  and  _396
REMARK  163  A    between atoms: _395  and  _398
REMARK  164  A    between atoms: _398  and  _399
REMARK  165  A    between atoms: _404  and  _405
REMARK  166  A    between atoms: _407  and  _409
REMARK  167  A    between atoms: _409  and  _410
REMARK  168  A    between atoms: _409  and  _412
REMARK  169  A    between atoms: _412  and  _413
REMARK  170  A    between atoms: _416  and  _418
REMARK  171  A    between atoms: _418  and  _419
REMARK  172  A    between atoms: _418  and  _421
REMARK  173  A    between atoms: _421  and  _422
REMARK  174  A    between atoms: _422  and  _423
REMARK  175  A    between atoms: _428  and  _430
REMARK  176  A    between atoms: _430  and  _431
REMARK  177  A    between atoms: _430  and  _433
REMARK  178  A    between atoms: _436  and  _438
REMARK  179  A    between atoms: _438  and  _439
REMARK  180  A    between atoms: _438  and  _441
REMARK  181  A    between atoms: _441  and  _442
REMARK  182  A    between atoms: _445  and  _447
REMARK  183  A    between atoms: _447  and  _448
REMARK  184  A    between atoms: _447  and  _450
REMARK  185  A    between atoms: _450  and  _451
REMARK  186  A    between atoms: _453  and  _455
REMARK  187  A    between atoms: _455  and  _456
REMARK  188  A    between atoms: _458  and  _460
REMARK  189  A    between atoms: _460  and  _461
REMARK  190  A    between atoms: _460  and  _463
REMARK  191  A    between atoms: _463  and  _464
REMARK  192  A    between atoms: _464  and  _790
REMARK  193  A    between atoms: _465  and  _467
REMARK  194  A    between atoms: _467  and  _468
REMARK  195  A    between atoms: _467  and  _470
REMARK  196  A    between atoms: _470  and  _471
REMARK  197  A    between atoms: _476  and  _477
REMARK  198  A    between atoms: _479  and  _481
REMARK  199  A    between atoms: _481  and  _482
REMARK  200  A    between atoms: _481  and  _484
REMARK  201  A    between atoms: _484  and  _485
REMARK  202  A    between atoms: _485  and  _486
REMARK  203  A    between atoms: _491  and  _493
REMARK  204  A    between atoms: _493  and  _494
REMARK  205  A    between atoms: _493  and  _496
REMARK  206  A    between atoms: _496  and  _497
REMARK  207  A    between atoms: _497  and  _498
REMARK  208  A    between atoms: _503  and  _505
REMARK  209  A    between atoms: _505  and  _506
REMARK  210  A    between atoms: _505  and  _508
REMARK  211  A    between atoms: _508  and  _509
REMARK  212  A    between atoms: _514  and  _515
REMARK  213  A    between atoms: _517  and  _519
REMARK  214  A    between atoms: _519  and  _520
REMARK  215  A    between atoms: _523  and  _525
REMARK  216  A    between atoms: _525  and  _526
REMARK  217  A    between atoms: _525  and  _528
REMARK  218  A    between atoms: _528  and  _529
REMARK  219  A    between atoms: _534  and  _535
REMARK  220  A    between atoms: _537  and  _539
REMARK  221  A    between atoms: _539  and  _540
REMARK  222  A    between atoms: _539  and  _542
REMARK  223  A    between atoms: _542  and  _543
REMARK  224  A    between atoms: _548  and  _549
REMARK  225  A    between atoms: _551  and  _553
REMARK  226  A    between atoms: _553  and  _554
REMARK  227  A    between atoms: _553  and  _556
REMARK  228  A    between atoms: _556  and  _557
REMARK  229  A    between atoms: _560  and  _562
REMARK  230  A    between atoms: _562  and  _563
REMARK  231  A    between atoms: _562  and  _565
REMARK  232  A    between atoms: _565  and  _566
REMARK  233  A    between atoms: _576  and  _578
REMARK  234  A    between atoms: _578  and  _579
REMARK  235  A    between atoms: _582  and  _584
REMARK  236  A    between atoms: _584  and  _585
REMARK  237  A    between atoms: _588  and  _590
REMARK  238  A    between atoms: _590  and  _591
REMARK  239  A    between atoms: _590  and  _593
REMARK  240  A    between atoms: _593  and  _594
REMARK  241  A    between atoms: _597  and  _599
REMARK  242  A    between atoms: _599  and  _600
REMARK  243  A    between atoms: _599  and  _602
REMARK  244  A    between atoms: _602  and  _603
REMARK  245  A    between atoms: _606  and  _608
REMARK  246  A    between atoms: _608  and  _609
REMARK  247  A    between atoms: _608  and  _611
REMARK  248  A    between atoms: _611  and  _612
REMARK  249  A    between atoms: _615  and  _617
REMARK  250  A    between atoms: _617  and  _618
REMARK  251  A    between atoms: _617  and  _620
REMARK  252  A    between atoms: _620  and  _621
REMARK  253  A    between atoms: _621  and  _622
REMARK  254  A    between atoms: _622  and  _623
REMARK  255  A    between atoms: _623  and  _624
REMARK  256  A    between atoms: _628  and  _630
REMARK  257  A    between atoms: _630  and  _631
REMARK  258  A    between atoms: _630  and  _633
REMARK  259  A    between atoms: _633  and  _634
REMARK  260  A    between atoms: _639  and  _641
REMARK  261  A    between atoms: _641  and  _642
REMARK  262  A    between atoms: _641  and  _644
REMARK  263  A    between atoms: _644  and  _645
REMARK  264  A    between atoms: _645  and  _646
REMARK  265  A    between atoms: _646  and  _647
REMARK  266  A    between atoms: _647  and  _648
REMARK  267  A    between atoms: _652  and  _654
REMARK  268  A    between atoms: _654  and  _655
REMARK  269  A    between atoms: _654  and  _657
REMARK  270  A    between atoms: _657  and  _658
REMARK  271  A    between atoms: _668  and  _670
REMARK  272  A    between atoms: _670  and  _671
REMARK  273  A    between atoms: _674  and  _676
REMARK  274  A    between atoms: _676  and  _677
REMARK  275  A    between atoms: _679  and  _681
REMARK  276  A    between atoms: _681  and  _682
REMARK  277  A    between atoms: _685  and  _687
REMARK  278  A    between atoms: _687  and  _688
REMARK  279  A    between atoms: _691  and  _693
REMARK  280  A    between atoms: _693  and  _694
REMARK  281  A    between atoms: _693  and  _696
REMARK  282  A    between atoms: _696  and  _697
REMARK  283  A    between atoms: _697  and  _698
REMARK  284  A    between atoms: _701  and  _703
REMARK  285  A    between atoms: _703  and  _704
REMARK  286  A    between atoms: _703  and  _706
REMARK  287  A    between atoms: _706  and  _707
REMARK  288  A    between atoms: _712  and  _713
REMARK  289  A    between atoms: _715  and  _717
REMARK  290  A    between atoms: _717  and  _718
REMARK  291  A    between atoms: _717  and  _720
REMARK  292  A    between atoms: _720  and  _721
REMARK  293  A    between atoms: _726  and  _727
REMARK  294  A    between atoms: _729  and  _731
REMARK  295  A    between atoms: _731  and  _732
REMARK  296  A    between atoms: _731  and  _734
REMARK  297  A    between atoms: _734  and  _735
REMARK  298  A    between atoms: _735  and  _736
REMARK  299  A    between atoms: _736  and  _737
REMARK  300  A    between atoms: _746  and  _748
REMARK  301  A    between atoms: _748  and  _749
REMARK  302  A    between atoms: _752  and  _754
REMARK  303  A    between atoms: _754  and  _755
REMARK  304  A    between atoms: _754  and  _757
REMARK  305  A    between atoms: _757  and  _758
REMARK  306  A    between atoms: _763  and  _764
REMARK  307  A    between atoms: _766  and  _768
REMARK  308  A    between atoms: _768  and  _769
REMARK  309  A    between atoms: _768  and  _771
REMARK  310  A    between atoms: _771  and  _772
REMARK  311  A    between atoms: _775  and  _777
REMARK  312  A    between atoms: _777  and  _778
REMARK  313  A    between atoms: _777  and  _780
REMARK  314  A    between atoms: _780  and  _781
REMARK  315  A    between atoms: _784  and  _786
REMARK  316  A    between atoms: _786  and  _787
REMARK  317  A    between atoms: _786  and  _789
REMARK  318  A    between atoms: _789  and  _790
REMARK  319  A    between atoms: _791  and  _793
REMARK  320  A    between atoms: _793  and  _794
REMARK  321  A    between atoms: _793  and  _796
REMARK  322  A    between atoms: _799  and  _801
REMARK  323  A    between atoms: _801  and  _802
REMARK  324  A    between atoms: _801  and  _804
REMARK  325  A    between atoms: _804  and  _805
REMARK  326  A    between atoms: _805  and  _806
REMARK  327  A    between atoms: _809  and  _811
REMARK  328  A    between atoms: _811  and  _812
REMARK  329  A    between atoms: _811  and  _814
REMARK  330  A    between atoms: _814  and  _815
REMARK  331  A    between atoms: _825  and  _827
REMARK  332  A    between atoms: _827  and  _828
REMARK  333  A    between atoms: _827  and  _830
REMARK  334  A    between atoms: _830  and  _831
REMARK  335  A    between atoms: _834  and  _836
REMARK  336  A    between atoms: _836  and  _837
REMARK  337  A    between atoms: _836  and  _839
REMARK  338  A    between atoms: _839  and  _840
REMARK  339  A    between atoms: _840  and  _841
REMARK  340  A    between atoms: _841  and  _842
REMARK  341  A    between atoms: _851  and  _853
REMARK  342  A    between atoms: _853  and  _854
REMARK  343  A    between atoms: _853  and  _856
REMARK  344  A    between atoms: _856  and  _857
REMARK  345  A    between atoms: _862  and  _863
REMARK                            x       y       z     vdW  Elec       q    Type
REMARK                         _______ _______ _______ _____ _____    ______ ____
ROOT
ATOM      1  CA  GLN A   3      46.880  49.274 -11.056  0.00  0.00    +0.149 C 
ENDROOT
BRANCH   1   3
ATOM      2  C   GLN A   2      48.324  51.077 -10.325  0.00  0.00    +0.241 C 
ATOM      3  N   GLN A   3      47.502  50.084 -10.023  0.00  0.00    -0.297 N 
ATOM      4  H   GLN A   3      47.297  49.879  -9.024  0.00  0.00    +0.150 HD
ATOM      5  O   GLN A   2      48.609  51.384 -11.477  0.00  0.00    -0.273 OA
BRANCH   2   6
ATOM      6  CA  GLN A   2      48.916  51.826  -9.155  0.00  0.00    +0.149 C 
BRANCH   6   9
ATOM      7  C   TYR A   1      51.158  51.962  -8.255  0.00  0.00    +0.239 C 
ATOM      8  O   TYR A   1      50.770  52.311  -7.136  0.00  0.00    -0.274 OA
ATOM      9  N   GLN A   2      50.350  51.739  -9.274  0.00  0.00    -0.297 N 
ATOM     10  H   GLN A   2      50.762  51.492 -10.196  0.00  0.00    +0.150 HD
BRANCH   7  11
ATOM     11  CA  TYR A   1      52.610  51.772  -8.578  0.00  0.00    +0.149 C 
BRANCH  11  12
ATOM     12  N   TYR A   1      53.497  52.387  -7.625  0.00  0.00    -0.238 NA
ATOM     13  H   TYR A   1      53.143  52.670  -6.689  0.00  0.00    +0.142 HD
ENDBRANCH  11  12
BRANCH  11  14
ATOM     14  CB  TYR A   1      52.924  50.272  -8.663  0.00  0.00    +0.053 C 
BRANCH  14  15
ATOM     15  CG  TYR A   1      53.170  49.660  -7.305  0.00  0.00    -0.020 A 
ATOM     16  CD2 TYR A   1      52.113  49.339  -6.457  0.00  0.00    -0.001 A 
ATOM     17  CE2 TYR A   1      52.351  48.816  -5.173  0.00  0.00    +0.036 A 
ATOM     18  CZ  TYR A   1      53.659  48.617  -4.750  0.00  0.00    +0.134 A 
ATOM     19  CE1 TYR A   1      54.715  48.930  -5.580  0.00  0.00    +0.036 A 
ATOM     20  CD1 TYR A   1      54.468  49.447  -6.851  0.00  0.00    -0.001 A 
BRANCH  18  21
ATOM     21  OH  TYR A   1      53.923  48.086  -3.503  0.00  0.00    -0.506 OA
ATOM     22  HH  TYR A   1      53.070  47.916  -3.031  0.00  0.00    +0.292 HD
ENDBRANCH  18  21
ENDBRANCH  14  15
ENDBRANCH  11  14
ENDBRANCH   7  11
ENDBRANCH   6   9
BRANCH   6  23
ATOM     23  CB  GLN A   2      48.442  53.270  -9.178  0.00  0.00    +0.039 C 
BRANCH  23  24
ATOM     24  CG  GLN A   2      46.955  53.352  -8.984  0.00  0.00    +0.087 C 
BRANCH  24  25
ATOM     25  CD  GLN A   2      46.477  54.773  -8.907  0.00  0.00    +0.219 C 
ATOM     26  OE1 GLN A   2      45.952  55.158  -7.756  0.00  0.00    -0.275 OA
ATOM     27  NE2 GLN A   2      46.585  55.520  -9.874  0.00  0.00    -0.329 N 
ATOM     28 HE21 GLN A   2      46.256  56.505  -9.810  0.00  0.00    +0.145 HD
ATOM     29 HE22 GLN A   2      47.005  55.169 -10.758  0.00  0.00    +0.145 HD
ENDBRANCH  24  25
ENDBRANCH  23  24
ENDBRANCH   6  23
ENDBRANCH   2   6
ENDBRANCH   1   3
BRANCH   1  30
ATOM     30  C   GLN A   3      45.401  49.104 -10.776  0.00  0.00    +0.241 C 
ATOM     31  O   GLN A   3      44.978  48.935  -9.631  0.00  0.00    -0.273 OA
ATOM     32  N   TYR A   4      44.621  49.165 -11.844  0.00  0.00    -0.297 N 
ATOM     33  H   TYR A   4      45.060  49.322 -12.774  0.00  0.00    +0.150 HD
BRANCH  32  34
ATOM     34  CA  TYR A   4      43.178  49.021 -11.770  0.00  0.00    +0.153 C 
BRANCH  34  35
ATOM     35  C   TYR A   4      42.712  47.800 -12.551  0.00  0.00    +0.241 C 
ATOM     36  N   ALA A   5      41.613  47.219 -12.096  0.00  0.00    -0.297 N 
ATOM     37  H   ALA A   5      41.171  47.586 -11.229  0.00  0.00    +0.150 HD
ATOM     38  O   TYR A   4      43.305  47.433 -13.558  0.00  0.00    -0.273 OA
BRANCH  36  39
ATOM     39  CA  ALA A   5      41.007  46.088 -12.768  0.00  0.00    +0.149 C 
ATOM     40  CB  ALA A   5      41.401  44.769 -12.061  0.00  0.00    +0.031 C 
BRANCH  39  41
ATOM     41  C   ALA A   5      39.507  46.269 -12.711  0.00  0.00    +0.241 C 
ATOM     42  O   ALA A   5      38.977  46.770 -11.722  0.00  0.00    -0.273 OA
ATOM     43  N   TYR A   6      38.822  45.892 -13.782  0.00  0.00    -0.298 N 
ATOM     44  H   TYR A   6      39.338  45.565 -14.624  0.00  0.00    +0.150 HD
BRANCH  43  45
ATOM     45  CA  TYR A   6      37.371  45.923 -13.811  0.00  0.00    +0.141 C 
BRANCH  45  46
ATOM     46  C   TYR A   6      36.932  44.468 -14.024  0.00  0.00    +0.227 C 
ATOM     47  O   TYR A   6      37.379  43.813 -14.964  0.00  0.00    -0.286 OA
ENDBRANCH  45  46
BRANCH  45  48
ATOM     48  CB  TYR A   6      36.845  46.776 -14.963  0.00  0.00    +0.054 C 
BRANCH  48  49
ATOM     49  CG  TYR A   6      35.334  46.863 -15.011  0.00  0.00    -0.020 A 
ATOM     50  CD2 TYR A   6      34.608  47.286 -13.905  0.00  0.00    -0.001 A 
ATOM     51  CE2 TYR A   6      33.233  47.435 -13.959  0.00  0.00    +0.036 A 
ATOM     52  CZ  TYR A   6      32.558  47.160 -15.139  0.00  0.00    +0.134 A 
ATOM     53  CE1 TYR A   6      33.250  46.730 -16.256  0.00  0.00    +0.036 A 
ATOM     54  CD1 TYR A   6      34.636  46.580 -16.189  0.00  0.00    -0.001 A 
BRANCH  52  55
ATOM     55  OH  TYR A   6      31.190  47.343 -15.194  0.00  0.00    -0.506 OA
ATOM     56  HH  TYR A   6      30.864  47.651 -14.311  0.00  0.00    +0.292 HD
ENDBRANCH  52  55
ENDBRANCH  48  49
ENDBRANCH  45  48
ENDBRANCH  43  45
ENDBRANCH  39  41
ENDBRANCH  36  39
ENDBRANCH  34  35
BRANCH  34  57
ATOM     57  CB  TYR A   4      42.464  50.220 -12.402  0.00  0.00    +0.055 C 
BRANCH  57  58
ATOM     58  CG  TYR A   4      42.363  51.458 -11.548  0.00  0.00    -0.020 A 
ATOM     59  CD2 TYR A   4      41.133  51.874 -11.062  0.00  0.00    -0.001 A 
ATOM     60  CE2 TYR A   4      41.009  53.039 -10.323  0.00  0.00    +0.036 A 
ATOM     61  CZ  TYR A   4      42.130  53.807 -10.062  0.00  0.00    +0.134 A 
ATOM     62  CE1 TYR A   4      43.373  53.416 -10.524  0.00  0.00    +0.036 A 
ATOM     63  CD1 TYR A   4      43.485  52.236 -11.269  0.00  0.00    -0.001 A 
BRANCH  61  64
ATOM     64  OH  TYR A   4      41.979  54.986  -9.364  0.00  0.00    -0.506 OA
ATOM     65  HH  TYR A   4      41.373  55.589  -9.864  0.00  0.00    +0.292 HD
ENDBRANCH  61  64
ENDBRANCH  57  58
ENDBRANCH  34  57
ENDBRANCH  32  34
ENDBRANCH   1  30
BRANCH   1  66
ATOM     66  CB  GLN A   3      47.559  47.904 -11.127  0.00  0.00    +0.039 C 
BRANCH  66  67
ATOM     67  CG  GLN A   3      49.029  47.989 -11.492  0.00  0.00    +0.087 C 
BRANCH  67  68
ATOM     68  CD  GLN A   3      49.794  46.717 -11.174  0.00  0.00    +0.219 C 
ATOM     69  NE2 GLN A   3      49.091  45.723 -10.634  0.00  0.00    -0.329 N 
ATOM     70 HE21 GLN A   3      49.559  44.826 -10.393  0.00  0.00    +0.145 HD
ATOM     71 HE22 GLN A   3      48.074  45.844 -10.454  0.00  0.00    +0.145 HD
ATOM     72  OE1 GLN A   3      51.004  46.629 -11.410  0.00  0.00    -0.275 OA
ENDBRANCH  67  68
ENDBRANCH  66  67
ENDBRANCH   1  66
TORSDOF 27
REMARK  Name = ../refined-set-2016/1fzj/1fzj_pocket.pdb
REMARK  345 active torsions:
REMARK  status: ('A' for Active; 'I' for Inactive)
REMARK    1  A    between atoms: _1  and  _3
REMARK    2  A    between atoms: _3  and  _4
REMARK    3  A    between atoms: _3  and  _6
REMARK    4  A    between atoms: _6  and  _7
REMARK    5  A    between atoms: _10  and  _12
REMARK    6  A    between atoms: _12  and  _13
REMARK    7  A    between atoms: _12  and  _15
REMARK    8  A    between atoms: _15  and  _16
REMARK    9  A    between atoms: _16  and  _17
REMARK   10  A    between atoms: _17  and  _18
REMARK   11  A    between atoms: _27  and  _29
REMARK   12  A    between atoms: _29  and  _30
REMARK   13  A    between atoms: _29  and  _32
REMARK   14  A    between atoms: _32  and  _33
REMARK   15  A    between atoms: _38  and  _39
REMARK   16  A    between atoms: _41  and  _43
REMARK   17  A    between atoms: _43  and  _44
REMARK   18  A    between atoms: _43  and  _46
REMARK   19  A    between atoms: _46  and  _47
REMARK   20  A    between atoms: _53  and  _55
REMARK   21  A    between atoms: _55  and  _56
REMARK   22  A    between atoms: _55  and  _58
REMARK   23  A    between atoms: _61  and  _63
REMARK   24  A    between atoms: _63  and  _64
REMARK   25  A    between atoms: _63  and  _66
REMARK   26  A    between atoms: _66  and  _67
REMARK   27  A    between atoms: _70  and  _72
REMARK   28  A    between atoms: _72  and  _73
REMARK   29  A    between atoms: _72  and  _75
REMARK   30  A    between atoms: _75  and  _76
REMARK   31  A    between atoms: _81  and  _82
REMARK   32  A    between atoms: _84  and  _86
REMARK   33  A    between atoms: _86  and  _87
REMARK   34  A    between atoms: _86  and  _89
REMARK   35  A    between atoms: _89  and  _90
REMARK   36  A    between atoms: _90  and  _91
REMARK   37  A    between atoms: _93  and  _95
REMARK   38  A    between atoms: _95  and  _96
REMARK   39  A    between atoms: _95  and  _98
REMARK   40  A    between atoms: _98  and  _99
REMARK   41  A    between atoms: _99  and  _100
REMARK   42  A    between atoms: _103  and  _105
REMARK   43  A    between atoms: _105  and  _106
REMARK   44  A    between atoms: _105  and  _108
REMARK   45  A    between atoms: _111  and  _113
REMARK   46  A    between atoms: _113  and  _114
REMARK   47  A    between atoms: _113  and  _116
REMARK   48  A    between atoms: _119  and  _121
REMARK   49  A    between atoms: _121  and  _122
REMARK   50  A    between atoms: _121  and  _124
REMARK   51  A    between atoms: _124  and  _125
REMARK   52  A    between atoms: _131  and  _133
REMARK   53  A    between atoms: _133  and  _134
REMARK   54  A    between atoms: _133  and  _136
REMARK   55  A    between atoms: _139  and  _141
REMARK   56  A    between atoms: _141  and  _142
REMARK   57  A    between atoms: _141  and  _144
REMARK   58  A    between atoms: _144  and  _145
REMARK   59  A    between atoms: _150  and  _151
REMARK   60  A    between atoms: _153  and  _155
REMARK   61  A    between atoms: _155  and  _156
REMARK   62  A    between atoms: _155  and  _158
REMARK   63  A    between atoms: _158  and  _159
REMARK   64  A    between atoms: _159  and  _160
REMARK   65  A    between atoms: _162  and  _164
REMARK   66  A    between atoms: _164  and  _165
REMARK   67  A    between atoms: _164  and  _167
REMARK   68  A    between atoms: _167  and  _168
REMARK   69  A    between atoms: _168  and  _169
REMARK   70  A    between atoms: _172  and  _174
REMARK   71  A    between atoms: _174  and  _175
REMARK   72  A    between atoms: _174  and  _177
REMARK   73  A    between atoms: _177  and  _178
REMARK   74  A    between atoms: _178  and  _179
REMARK   75  A    between atoms: _182  and  _184
REMARK   76  A    between atoms: _184  and  _185
REMARK   77  A    between atoms: _184  and  _187
REMARK   78  A    between atoms: _187  and  _188
REMARK   79  A    between atoms: _193  and  _194
REMARK   80  A    between atoms: _196  and  _198
REMARK   81  A    between atoms: _198  and  _199
REMARK   82  A    between atoms: _198  and  _201
REMARK   83  A    between atoms: _201  and  _202
REMARK   84  A    between atoms: _212  and  _214
REMARK   85  A    between atoms: _214  and  _215
REMARK   86  A    between atoms: _214  and  _217
REMARK   87  A    between atoms: _217  and  _218
REMARK   88  A    between atoms: _218  and  _219
REMARK   89  A    between atoms: _222  and  _224
REMARK   90  A    between atoms: _224  and  _225
REMARK   91  A    between atoms: _224  and  _227
REMARK   92  A    between atoms: _227  and  _228
REMARK   93  A    between atoms: _228  and  _229
REMARK   94  A    between atoms: _229  and  _230
REMARK   95  A    between atoms: _239  and  _241
REMARK   96  A    between atoms: _241  and  _242
REMARK   97  A    between atoms: _241  and  _244
REMARK   98  A    between atoms: _244  and  _245
REMARK   99  A    between atoms: _245  and  _246
REMARK  100  A    between atoms: _249  and  _251
REMARK  101  A    between atoms: _251  and  _252
REMARK  102  A    between atoms: _251  and  _254
REMARK  103  A    between atoms: _254  and  _255
REMARK  104  A    between atoms: _258  and  _260
REMARK  105  A    between atoms: _260  and  _261
REMARK  106  A    between atoms: _260  and  _263
REMARK  107  A    between atoms: _263  and  _264
REMARK  108  A    between atoms: _264  and  _265
REMARK  109  A    between atoms: _270  and  _272
REMARK  110  A    between atoms: _272  and  _273
REMARK  111  A    between atoms: _272  and  _275
REMARK  112  A    between atoms: _275  and  _276
REMARK  113  A    between atoms: _276  and  _277
REMARK  114  A    between atoms: _277  and  _278
REMARK  115  A    between atoms: _278  and  _279
REMARK  116  A    between atoms: _283  and  _285
REMARK  117  A    between atoms: _285  and  _286
REMARK  118  A    between atoms: _289  and  _291
REMARK  119  A    between atoms: _291  and  _292
REMARK  120  A    between atoms: _294  and  _296
REMARK  121  A    between atoms: _296  and  _297
REMARK  122  A    between atoms: _296  and  _299
REMARK  123  A    between atoms: _299  and  _300
REMARK  124  A    between atoms: _305  and  _307
REMARK  125  A    between atoms: _307  and  _308
REMARK  126  A    between atoms: _307  and  _310
REMARK  127  A    between atoms: _310  and  _311
REMARK  128  A    between atoms: _311  and  _312
REMARK  129  A    between atoms: _315  and  _317
REMARK  130  A    between atoms: _317  and  _318
REMARK  131  A    between atoms: _317  and  _320
REMARK  132  A    between atoms: _320  and  _321
REMARK  133  A    between atoms: _323  and  _325
REMARK  134  A    between atoms: _325  and  _326
REMARK  135  A    between atoms: _325  and  _328
REMARK  136  A    between atoms: _328  and  _329
REMARK  137  A    between atoms: _335  and  _337
REMARK  138  A    between atoms: _337  and  _338
REMARK  139  A    between atoms: _337  and  _340
REMARK  140  A    between atoms: _343  and  _345
REMARK  141  A    between atoms: _345  and  _346
REMARK  142  A    between atoms: _345  and  _348
REMARK  143  A    between atoms: _348  and  _349
REMARK  144  A    between atoms: _352  and  _354
REMARK  145  A    between atoms: _354  and  _355
REMARK  146  A    between atoms: _354  and  _357
REMARK  147  A    between atoms: _357  and  _358
REMARK  148  A    between atoms: _361  and  _363
REMARK  149  A    between atoms: _363  and  _364
REMARK  150  A    between atoms: _363  and  _366
REMARK  151  A    between atoms: _366  and  _367
REMARK  152  A    between atoms: _370  and  _372
REMARK  153  A    between atoms: _372  and  _373
REMARK  154  A    between atoms: _372  and  _375
REMARK  155  A    between atoms: _375  and  _376
REMARK  156  A    between atoms: _379  and  _381
REMARK  157  A    between atoms: _381  and  _382
REMARK  158  A    between atoms: _381  and  _384
REMARK  159  A    between atoms: _384  and  _385
REMARK  160  A    between atoms: _390  and  _391
REMARK  161  A    between atoms: _393  and  _395
REMARK  162  A    between atoms: _395  and  _396
REMARK  163  A    between atoms: _395  and  _398
REMARK  164  A    between atoms: _398  and  _399
REMARK  165  A    between atoms: _404  and  _405
REMARK  166  A    between atoms: _407  and  _409
REMARK  167  A    between atoms: _409  and  _410
REMARK  168  A    between atoms: _409  and  _412
REMARK  169  A    between atoms: _412  and  _413
REMARK  170  A    between atoms: _416  and  _418
REMARK  171  A    between atoms: _418  and  _419
REMARK  172  A    between atoms: _418  and  _421
REMARK  173  A    between atoms: _421  and  _422
REMARK  174  A    between atoms: _422  and  _423
REMARK  175  A    between atoms: _428  and  _430
REMARK  176  A    between atoms: _430  and  _431
REMARK  177  A    between atoms: _430  and  _433
REMARK  178  A    between atoms: _436  and  _438
REMARK  179  A    between atoms: _438  and  _439
REMARK  180  A    between atoms: _438  and  _441
REMARK  181  A    between atoms: _441  and  _442
REMARK  182  A    between atoms: _445  and  _447
REMARK  183  A    between atoms: _447  and  _448
REMARK  184  A    between atoms: _447  and  _450
REMARK  185  A    between atoms: _450  and  _451
REMARK  186  A    between atoms: _453  and  _455
REMARK  187  A    between atoms: _455  and  _456
REMARK  188  A    between atoms: _458  and  _460
REMARK  189  A    between atoms: _460  and  _461
REMARK  190  A    between atoms: _460  and  _463
REMARK  191  A    between atoms: _463  and  _464
REMARK  192  A    between atoms: _464  and  _790
REMARK  193  A    between atoms: _465  and  _467
REMARK  194  A    between atoms: _467  and  _468
REMARK  195  A    between atoms: _467  and  _470
REMARK  196  A    between atoms: _470  and  _471
REMARK  197  A    between atoms: _476  and  _477
REMARK  198  A    between atoms: _479  and  _481
REMARK  199  A    between atoms: _481  and  _482
REMARK  200  A    between atoms: _481  and  _484
REMARK  201  A    between atoms: _484  and  _485
REMARK  202  A    between atoms: _485  and  _486
REMARK  203  A    between atoms: _491  and  _493
REMARK  204  A    between atoms: _493  and  _494
REMARK  205  A    between atoms: _493  and  _496
REMARK  206  A    between atoms: _496  and  _497
REMARK  207  A    between atoms: _497  and  _498
REMARK  208  A    between atoms: _503  and  _505
REMARK  209  A    between atoms: _505  and  _506
REMARK  210  A    between atoms: _505  and  _508
REMARK  211  A    between atoms: _508  and  _509
REMARK  212  A    between atoms: _514  and  _515
REMARK  213  A    between atoms: _517  and  _519
REMARK  214  A    between atoms: _519  and  _520
REMARK  215  A    between atoms: _523  and  _525
REMARK  216  A    between atoms: _525  and  _526
REMARK  217  A    between atoms: _525  and  _528
REMARK  218  A    between atoms: _528  and  _529
REMARK  219  A    between atoms: _534  and  _535
REMARK  220  A    between atoms: _537  and  _539
REMARK  221  A    between atoms: _539  and  _540
REMARK  222  A    between atoms: _539  and  _542
REMARK  223  A    between atoms: _542  and  _543
REMARK  224  A    between atoms: _548  and  _549
REMARK  225  A    between atoms: _551  and  _553
REMARK  226  A    between atoms: _553  and  _554
REMARK  227  A    between atoms: _553  and  _556
REMARK  228  A    between atoms: _556  and  _557
REMARK  229  A    between atoms: _560  and  _562
REMARK  230  A    between atoms: _562  and  _563
REMARK  231  A    between atoms: _562  and  _565
REMARK  232  A    between atoms: _565  and  _566
REMARK  233  A    between atoms: _576  and  _578
REMARK  234  A    between atoms: _578  and  _579
REMARK  235  A    between atoms: _582  and  _584
REMARK  236  A    between atoms: _584  and  _585
REMARK  237  A    between atoms: _588  and  _590
REMARK  238  A    between atoms: _590  and  _591
REMARK  239  A    between atoms: _590  and  _593
REMARK  240  A    between atoms: _593  and  _594
REMARK  241  A    between atoms: _597  and  _599
REMARK  242  A    between atoms: _599  and  _600
REMARK  243  A    between atoms: _599  and  _602
REMARK  244  A    between atoms: _602  and  _603
REMARK  245  A    between atoms: _606  and  _608
REMARK  246  A    between atoms: _608  and  _609
REMARK  247  A    between atoms: _608  and  _611
REMARK  248  A    between atoms: _611  and  _612
REMARK  249  A    between atoms: _615  and  _617
REMARK  250  A    between atoms: _617  and  _618
REMARK  251  A    between atoms: _617  and  _620
REMARK  252  A    between atoms: _620  and  _621
REMARK  253  A    between atoms: _621  and  _622
REMARK  254  A    between atoms: _622  and  _623
REMARK  255  A    between atoms: _623  and  _624
REMARK  256  A    between atoms: _628  and  _630
REMARK  257  A    between atoms: _630  and  _631
REMARK  258  A    between atoms: _630  and  _633
REMARK  259  A    between atoms: _633  and  _634
REMARK  260  A    between atoms: _639  and  _641
REMARK  261  A    between atoms: _641  and  _642
REMARK  262  A    between atoms: _641  and  _644
REMARK  263  A    between atoms: _644  and  _645
REMARK  264  A    between atoms: _645  and  _646
REMARK  265  A    between atoms: _646  and  _647
REMARK  266  A    between atoms: _647  and  _648
REMARK  267  A    between atoms: _652  and  _654
REMARK  268  A    between atoms: _654  and  _655
REMARK  269  A    between atoms: _654  and  _657
REMARK  270  A    between atoms: _657  and  _658
REMARK  271  A    between atoms: _668  and  _670
REMARK  272  A    between atoms: _670  and  _671
REMARK  273  A    between atoms: _674  and  _676
REMARK  274  A    between atoms: _676  and  _677
REMARK  275  A    between atoms: _679  and  _681
REMARK  276  A    between atoms: _681  and  _682
REMARK  277  A    between atoms: _685  and  _687
REMARK  278  A    between atoms: _687  and  _688
REMARK  279  A    between atoms: _691  and  _693
REMARK  280  A    between atoms: _693  and  _694
REMARK  281  A    between atoms: _693  and  _696
REMARK  282  A    between atoms: _696  and  _697
REMARK  283  A    between atoms: _697  and  _698
REMARK  284  A    between atoms: _701  and  _703
REMARK  285  A    between atoms: _703  and  _704
REMARK  286  A    between atoms: _703  and  _706
REMARK  287  A    between atoms: _706  and  _707
REMARK  288  A    between atoms: _712  and  _713
REMARK  289  A    between atoms: _715  and  _717
REMARK  290  A    between atoms: _717  and  _718
REMARK  291  A    between atoms: _717  and  _720
REMARK  292  A    between atoms: _720  and  _721
REMARK  293  A    between atoms: _726  and  _727
REMARK  294  A    between atoms: _729  and  _731
REMARK  295  A    between atoms: _731  and  _732
REMARK  296  A    between atoms: _731  and  _734
REMARK  297  A    between atoms: _734  and  _735
REMARK  298  A    between atoms: _735  and  _736
REMARK  299  A    between atoms: _736  and  _737
REMARK  300  A    between atoms: _746  and  _748
REMARK  301  A    between atoms: _748  and  _749
REMARK  302  A    between atoms: _752  and  _754
REMARK  303  A    between atoms: _754  and  _755
REMARK  304  A    between atoms: _754  and  _757
REMARK  305  A    between atoms: _757  and  _758
REMARK  306  A    between atoms: _763  and  _764
REMARK  307  A    between atoms: _766  and  _768
REMARK  308  A    between atoms: _768  and  _769
REMARK  309  A    between atoms: _768  and  _771
REMARK  310  A    between atoms: _771  and  _772
REMARK  311  A    between atoms: _775  and  _777
REMARK  312  A    between atoms: _777  and  _778
REMARK  313  A    between atoms: _777  and  _780
REMARK  314  A    between atoms: _780  and  _781
REMARK  315  A    between atoms: _784  and  _786
REMARK  316  A    between atoms: _786  and  _787
REMARK  317  A    between atoms: _786  and  _789
REMARK  318  A    between atoms: _789  and  _790
REMARK  319  A    between atoms: _791  and  _793
REMARK  320  A    between atoms: _793  and  _794
REMARK  321  A    between atoms: _793  and  _796
REMARK  322  A    between atoms: _799  and  _801
REMARK  323  A    between atoms: _801  and  _802
REMARK  324  A    between atoms: _801  and  _804
REMARK  325  A    between atoms: _804  and  _805
REMARK  326  A    between atoms: _805  and  _806
REMARK  327  A    between atoms: _809  and  _811
REMARK  328  A    between atoms: _811  and  _812
REMARK  329  A    between atoms: _811  and  _814
REMARK  330  A    between atoms: _814  and  _815
REMARK  331  A    between atoms: _825  and  _827
REMARK  332  A    between atoms: _827  and  _828
REMARK  333  A    between atoms: _827  and  _830
REMARK  334  A    between atoms: _830  and  _831
REMARK  335  A    between atoms: _834  and  _836
REMARK  336  A    between atoms: _836  and  _837
REMARK  337  A    between atoms: _836  and  _839
REMARK  338  A    between atoms: _839  and  _840
REMARK  339  A    between atoms: _840  and  _841
REMARK  340  A    between atoms: _841  and  _842
REMARK  341  A    between atoms: _851  and  _853
REMARK  342  A    between atoms: _853  and  _854
REMARK  343  A    between atoms: _853  and  _856
REMARK  344  A    between atoms: _856  and  _857
REMARK  345  A    between atoms: _862  and  _863
REMARK                            x       y       z     vdW  Elec       q    Type
REMARK                         _______ _______ _______ _____ _____    ______ ____
ROOT
ATOM      1  CA  TYR A   1      41.959  47.988 -16.818  0.00  0.00    +0.149 C 
ENDROOT
BRANCH   1   2
ATOM      2  C   TYR A   1      43.014  49.022 -17.201  0.00  0.00    +0.239 C 
ATOM      3  N   ILE A   2      43.608  49.666 -16.202  0.00  0.00    -0.298 N 
ATOM      4  H   ILE A   2      43.329  49.468 -15.220  0.00  0.00    +0.150 HD
ATOM      5  O   TYR A   1      43.292  49.235 -18.379  0.00  0.00    -0.274 OA
BRANCH   3   6
ATOM      6  CA  ILE A   2      44.648  50.648 -16.478  0.00  0.00    +0.137 C 
BRANCH   6   7
ATOM      7  C   ILE A   2      45.738  50.539 -15.421  0.00  0.00    +0.227 C 
ATOM      8  O   ILE A   2      45.477  50.148 -14.287  0.00  0.00    -0.286 OA
ENDBRANCH   6   7
BRANCH   6   9
ATOM      9  CB  ILE A   2      44.060  52.102 -16.505  0.00  0.00    +0.026 C 
ATOM     10  CG2 ILE A   2      43.729  52.566 -15.092  0.00  0.00    +0.002 C 
BRANCH   9  11
ATOM     11  CG1 ILE A   2      45.069  53.059 -17.145  0.00  0.00    +0.002 C 
ATOM     12  CD1 ILE A   2      44.460  54.399 -17.551  0.00  0.00    +0.000 C 
ENDBRANCH   9  11
ENDBRANCH   6   9
ENDBRANCH   3   6
ENDBRANCH   1   2
BRANCH   1  13
ATOM     13  N   TYR A   1      42.653  46.843 -16.227  0.00  0.00    -0.238 NA
ATOM     14  H   TYR A   1      43.175  46.968 -15.336  0.00  0.00    +0.142 HD
ENDBRANCH   1  13
BRANCH   1  15
ATOM     15  CB  TYR A   1      40.978  48.606 -15.820  0.00  0.00    +0.053 C 
BRANCH  15  16
ATOM     16  CG  TYR A   1      40.164  49.747 -16.398  0.00  0.00    -0.020 A 
ATOM     17  CD2 TYR A   1      40.470  51.079 -16.088  0.00  0.00    -0.001 A 
ATOM     18  CE2 TYR A   1      39.716  52.141 -16.621  0.00  0.00    +0.036 A 
ATOM     19  CZ  TYR A   1      38.652  51.864 -17.469  0.00  0.00    +0.134 A 
ATOM     20  CE1 TYR A   1      38.329  50.540 -17.791  0.00  0.00    +0.036 A 
ATOM     21  CD1 TYR A   1      39.090  49.496 -17.252  0.00  0.00    -0.001 A 
BRANCH  19  22
ATOM     22  OH  TYR A   1      37.907  52.884 -18.016  0.00  0.00    -0.506 OA
ATOM     23  HH  TYR A   1      38.495  53.465 -18.560  0.00  0.00    +0.292 HD
ENDBRANCH  19  22
ENDBRANCH  15  16
ENDBRANCH   1  15
TORSDOF 9
REMARK  Name = ../refined-set-2016/1fzj/1fzj_pocket.pdb
REMARK  345 active torsions:
REMARK  status: ('A' for Active; 'I' for Inactive)
REMARK    1  A    between atoms: _1  and  _3
REMARK    2  A    between atoms: _3  and  _4
REMARK    3  A    between atoms: _3  and  _6
REMARK    4  A    between atoms: _6  and  _7
REMARK    5  A    between atoms: _10  and  _12
REMARK    6  A    between atoms: _12  and  _13
REMARK    7  A    between atoms: _12  and  _15
REMARK    8  A    between atoms: _15  and  _16
REMARK    9  A    between atoms: _16  and  _17
REMARK   10  A    between atoms: _17  and  _18
REMARK   11  A    between atoms: _27  and  _29
REMARK   12  A    between atoms: _29  and  _30
REMARK   13  A    between atoms: _29  and  _32
REMARK   14  A    between atoms: _32  and  _33
REMARK   15  A    between atoms: _38  and  _39
REMARK   16  A    between atoms: _41  and  _43
REMARK   17  A    between atoms: _43  and  _44
REMARK   18  A    between atoms: _43  and  _46
REMARK   19  A    between atoms: _46  and  _47
REMARK   20  A    between atoms: _53  and  _55
REMARK   21  A    between atoms: _55  and  _56
REMARK   22  A    between atoms: _55  and  _58
REMARK   23  A    between atoms: _61  and  _63
REMARK   24  A    between atoms: _63  and  _64
REMARK   25  A    between atoms: _63  and  _66
REMARK   26  A    between atoms: _66  and  _67
REMARK   27  A    between atoms: _70  and  _72
REMARK   28  A    between atoms: _72  and  _73
REMARK   29  A    between atoms: _72  and  _75
REMARK   30  A    between atoms: _75  and  _76
REMARK   31  A    between atoms: _81  and  _82
REMARK   32  A    between atoms: _84  and  _86
REMARK   33  A    between atoms: _86  and  _87
REMARK   34  A    between atoms: _86  and  _89
REMARK   35  A    between atoms: _89  and  _90
REMARK   36  A    between atoms: _90  and  _91
REMARK   37  A    between atoms: _93  and  _95
REMARK   38  A    between atoms: _95  and  _96
REMARK   39  A    between atoms: _95  and  _98
REMARK   40  A    between atoms: _98  and  _99
REMARK   41  A    between atoms: _99  and  _100
REMARK   42  A    between atoms: _103  and  _105
REMARK   43  A    between atoms: _105  and  _106
REMARK   44  A    between atoms: _105  and  _108
REMARK   45  A    between atoms: _111  and  _113
REMARK   46  A    between atoms: _113  and  _114
REMARK   47  A    between atoms: _113  and  _116
REMARK   48  A    between atoms: _119  and  _121
REMARK   49  A    between atoms: _121  and  _122
REMARK   50  A    between atoms: _121  and  _124
REMARK   51  A    between atoms: _124  and  _125
REMARK   52  A    between atoms: _131  and  _133
REMARK   53  A    between atoms: _133  and  _134
REMARK   54  A    between atoms: _133  and  _136
REMARK   55  A    between atoms: _139  and  _141
REMARK   56  A    between atoms: _141  and  _142
REMARK   57  A    between atoms: _141  and  _144
REMARK   58  A    between atoms: _144  and  _145
REMARK   59  A    between atoms: _150  and  _151
REMARK   60  A    between atoms: _153  and  _155
REMARK   61  A    between atoms: _155  and  _156
REMARK   62  A    between atoms: _155  and  _158
REMARK   63  A    between atoms: _158  and  _159
REMARK   64  A    between atoms: _159  and  _160
REMARK   65  A    between atoms: _162  and  _164
REMARK   66  A    between atoms: _164  and  _165
REMARK   67  A    between atoms: _164  and  _167
REMARK   68  A    between atoms: _167  and  _168
REMARK   69  A    between atoms: _168  and  _169
REMARK   70  A    between atoms: _172  and  _174
REMARK   71  A    between atoms: _174  and  _175
REMARK   72  A    between atoms: _174  and  _177
REMARK   73  A    between atoms: _177  and  _178
REMARK   74  A    between atoms: _178  and  _179
REMARK   75  A    between atoms: _182  and  _184
REMARK   76  A    between atoms: _184  and  _185
REMARK   77  A    between atoms: _184  and  _187
REMARK   78  A    between atoms: _187  and  _188
REMARK   79  A    between atoms: _193  and  _194
REMARK   80  A    between atoms: _196  and  _198
REMARK   81  A    between atoms: _198  and  _199
REMARK   82  A    between atoms: _198  and  _201
REMARK   83  A    between atoms: _201  and  _202
REMARK   84  A    between atoms: _212  and  _214
REMARK   85  A    between atoms: _214  and  _215
REMARK   86  A    between atoms: _214  and  _217
REMARK   87  A    between atoms: _217  and  _218
REMARK   88  A    between atoms: _218  and  _219
REMARK   89  A    between atoms: _222  and  _224
REMARK   90  A    between atoms: _224  and  _225
REMARK   91  A    between atoms: _224  and  _227
REMARK   92  A    between atoms: _227  and  _228
REMARK   93  A    between atoms: _228  and  _229
REMARK   94  A    between atoms: _229  and  _230
REMARK   95  A    between atoms: _239  and  _241
REMARK   96  A    between atoms: _241  and  _242
REMARK   97  A    between atoms: _241  and  _244
REMARK   98  A    between atoms: _244  and  _245
REMARK   99  A    between atoms: _245  and  _246
REMARK  100  A    between atoms: _249  and  _251
REMARK  101  A    between atoms: _251  and  _252
REMARK  102  A    between atoms: _251  and  _254
REMARK  103  A    between atoms: _254  and  _255
REMARK  104  A    between atoms: _258  and  _260
REMARK  105  A    between atoms: _260  and  _261
REMARK  106  A    between atoms: _260  and  _263
REMARK  107  A    between atoms: _263  and  _264
REMARK  108  A    between atoms: _264  and  _265
REMARK  109  A    between atoms: _270  and  _272
REMARK  110  A    between atoms: _272  and  _273
REMARK  111  A    between atoms: _272  and  _275
REMARK  112  A    between atoms: _275  and  _276
REMARK  113  A    between atoms: _276  and  _277
REMARK  114  A    between atoms: _277  and  _278
REMARK  115  A    between atoms: _278  and  _279
REMARK  116  A    between atoms: _283  and  _285
REMARK  117  A    between atoms: _285  and  _286
REMARK  118  A    between atoms: _289  and  _291
REMARK  119  A    between atoms: _291  and  _292
REMARK  120  A    between atoms: _294  and  _296
REMARK  121  A    between atoms: _296  and  _297
REMARK  122  A    between atoms: _296  and  _299
REMARK  123  A    between atoms: _299  and  _300
REMARK  124  A    between atoms: _305  and  _307
REMARK  125  A    between atoms: _307  and  _308
REMARK  126  A    between atoms: _307  and  _310
REMARK  127  A    between atoms: _310  and  _311
REMARK  128  A    between atoms: _311  and  _312
REMARK  129  A    between atoms: _315  and  _317
REMARK  130  A    between atoms: _317  and  _318
REMARK  131  A    between atoms: _317  and  _320
REMARK  132  A    between atoms: _320  and  _321
REMARK  133  A    between atoms: _323  and  _325
REMARK  134  A    between atoms: _325  and  _326
REMARK  135  A    between atoms: _325  and  _328
REMARK  136  A    between atoms: _328  and  _329
REMARK  137  A    between atoms: _335  and  _337
REMARK  138  A    between atoms: _337  and  _338
REMARK  139  A    between atoms: _337  and  _340
REMARK  140  A    between atoms: _343  and  _345
REMARK  141  A    between atoms: _345  and  _346
REMARK  142  A    between atoms: _345  and  _348
REMARK  143  A    between atoms: _348  and  _349
REMARK  144  A    between atoms: _352  and  _354
REMARK  145  A    between atoms: _354  and  _355
REMARK  146  A    between atoms: _354  and  _357
REMARK  147  A    between atoms: _357  and  _358
REMARK  148  A    between atoms: _361  and  _363
REMARK  149  A    between atoms: _363  and  _364
REMARK  150  A    between atoms: _363  and  _366
REMARK  151  A    between atoms: _366  and  _367
REMARK  152  A    between atoms: _370  and  _372
REMARK  153  A    between atoms: _372  and  _373
REMARK  154  A    between atoms: _372  and  _375
REMARK  155  A    between atoms: _375  and  _376
REMARK  156  A    between atoms: _379  and  _381
REMARK  157  A    between atoms: _381  and  _382
REMARK  158  A    between atoms: _381  and  _384
REMARK  159  A    between atoms: _384  and  _385
REMARK  160  A    between atoms: _390  and  _391
REMARK  161  A    between atoms: _393  and  _395
REMARK  162  A    between atoms: _395  and  _396
REMARK  163  A    between atoms: _395  and  _398
REMARK  164  A    between atoms: _398  and  _399
REMARK  165  A    between atoms: _404  and  _405
REMARK  166  A    between atoms: _407  and  _409
REMARK  167  A    between atoms: _409  and  _410
REMARK  168  A    between atoms: _409  and  _412
REMARK  169  A    between atoms: _412  and  _413
REMARK  170  A    between atoms: _416  and  _418
REMARK  171  A    between atoms: _418  and  _419
REMARK  172  A    between atoms: _418  and  _421
REMARK  173  A    between atoms: _421  and  _422
REMARK  174  A    between atoms: _422  and  _423
REMARK  175  A    between atoms: _428  and  _430
REMARK  176  A    between atoms: _430  and  _431
REMARK  177  A    between atoms: _430  and  _433
REMARK  178  A    between atoms: _436  and  _438
REMARK  179  A    between atoms: _438  and  _439
REMARK  180  A    between atoms: _438  and  _441
REMARK  181  A    between atoms: _441  and  _442
REMARK  182  A    between atoms: _445  and  _447
REMARK  183  A    between atoms: _447  and  _448
REMARK  184  A    between atoms: _447  and  _450
REMARK  185  A    between atoms: _450  and  _451
REMARK  186  A    between atoms: _453  and  _455
REMARK  187  A    between atoms: _455  and  _456
REMARK  188  A    between atoms: _458  and  _460
REMARK  189  A    between atoms: _460  and  _461
REMARK  190  A    between atoms: _460  and  _463
REMARK  191  A    between atoms: _463  and  _464
REMARK  192  A    between atoms: _464  and  _790
REMARK  193  A    between atoms: _465  and  _467
REMARK  194  A    between atoms: _467  and  _468
REMARK  195  A    between atoms: _467  and  _470
REMARK  196  A    between atoms: _470  and  _471
REMARK  197  A    between atoms: _476  and  _477
REMARK  198  A    between atoms: _479  and  _481
REMARK  199  A    between atoms: _481  and  _482
REMARK  200  A    between atoms: _481  and  _484
REMARK  201  A    between atoms: _484  and  _485
REMARK  202  A    between atoms: _485  and  _486
REMARK  203  A    between atoms: _491  and  _493
REMARK  204  A    between atoms: _493  and  _494
REMARK  205  A    between atoms: _493  and  _496
REMARK  206  A    between atoms: _496  and  _497
REMARK  207  A    between atoms: _497  and  _498
REMARK  208  A    between atoms: _503  and  _505
REMARK  209  A    between atoms: _505  and  _506
REMARK  210  A    between atoms: _505  and  _508
REMARK  211  A    between atoms: _508  and  _509
REMARK  212  A    between atoms: _514  and  _515
REMARK  213  A    between atoms: _517  and  _519
REMARK  214  A    between atoms: _519  and  _520
REMARK  215  A    between atoms: _523  and  _525
REMARK  216  A    between atoms: _525  and  _526
REMARK  217  A    between atoms: _525  and  _528
REMARK  218  A    between atoms: _528  and  _529
REMARK  219  A    between atoms: _534  and  _535
REMARK  220  A    between atoms: _537  and  _539
REMARK  221  A    between atoms: _539  and  _540
REMARK  222  A    between atoms: _539  and  _542
REMARK  223  A    between atoms: _542  and  _543
REMARK  224  A    between atoms: _548  and  _549
REMARK  225  A    between atoms: _551  and  _553
REMARK  226  A    between atoms: _553  and  _554
REMARK  227  A    between atoms: _553  and  _556
REMARK  228  A    between atoms: _556  and  _557
REMARK  229  A    between atoms: _560  and  _562
REMARK  230  A    between atoms: _562  and  _563
REMARK  231  A    between atoms: _562  and  _565
REMARK  232  A    between atoms: _565  and  _566
REMARK  233  A    between atoms: _576  and  _578
REMARK  234  A    between atoms: _578  and  _579
REMARK  235  A    between atoms: _582  and  _584
REMARK  236  A    between atoms: _584  and  _585
REMARK  237  A    between atoms: _588  and  _590
REMARK  238  A    between atoms: _590  and  _591
REMARK  239  A    between atoms: _590  and  _593
REMARK  240  A    between atoms: _593  and  _594
REMARK  241  A    between atoms: _597  and  _599
REMARK  242  A    between atoms: _599  and  _600
REMARK  243  A    between atoms: _599  and  _602
REMARK  244  A    between atoms: _602  and  _603
REMARK  245  A    between atoms: _606  and  _608
REMARK  246  A    between atoms: _608  and  _609
REMARK  247  A    between atoms: _608  and  _611
REMARK  248  A    between atoms: _611  and  _612
REMARK  249  A    between atoms: _615  and  _617
REMARK  250  A    between atoms: _617  and  _618
REMARK  251  A    between atoms: _617  and  _620
REMARK  252  A    between atoms: _620  and  _621
REMARK  253  A    between atoms: _621  and  _622
REMARK  254  A    between atoms: _622  and  _623
REMARK  255  A    between atoms: _623  and  _624
REMARK  256  A    between atoms: _628  and  _630
REMARK  257  A    between atoms: _630  and  _631
REMARK  258  A    between atoms: _630  and  _633
REMARK  259  A    between atoms: _633  and  _634
REMARK  260  A    between atoms: _639  and  _641
REMARK  261  A    between atoms: _641  and  _642
REMARK  262  A    between atoms: _641  and  _644
REMARK  263  A    between atoms: _644  and  _645
REMARK  264  A    between atoms: _645  and  _646
REMARK  265  A    between atoms: _646  and  _647
REMARK  266  A    between atoms: _647  and  _648
REMARK  267  A    between atoms: _652  and  _654
REMARK  268  A    between atoms: _654  and  _655
REMARK  269  A    between atoms: _654  and  _657
REMARK  270  A    between atoms: _657  and  _658
REMARK  271  A    between atoms: _668  and  _670
REMARK  272  A    between atoms: _670  and  _671
REMARK  273  A    between atoms: _674  and  _676
REMARK  274  A    between atoms: _676  and  _677
REMARK  275  A    between atoms: _679  and  _681
REMARK  276  A    between atoms: _681  and  _682
REMARK  277  A    between atoms: _685  and  _687
REMARK  278  A    between atoms: _687  and  _688
REMARK  279  A    between atoms: _691  and  _693
REMARK  280  A    between atoms: _693  and  _694
REMARK  281  A    between atoms: _693  and  _696
REMARK  282  A    between atoms: _696  and  _697
REMARK  283  A    between atoms: _697  and  _698
REMARK  284  A    between atoms: _701  and  _703
REMARK  285  A    between atoms: _703  and  _704
REMARK  286  A    between atoms: _703  and  _706
REMARK  287  A    between atoms: _706  and  _707
REMARK  288  A    between atoms: _712  and  _713
REMARK  289  A    between atoms: _715  and  _717
REMARK  290  A    between atoms: _717  and  _718
REMARK  291  A    between atoms: _717  and  _720
REMARK  292  A    between atoms: _720  and  _721
REMARK  293  A    between atoms: _726  and  _727
REMARK  294  A    between atoms: _729  and  _731
REMARK  295  A    between atoms: _731  and  _732
REMARK  296  A    between atoms: _731  and  _734
REMARK  297  A    between atoms: _734  and  _735
REMARK  298  A    between atoms: _735  and  _736
REMARK  299  A    between atoms: _736  and  _737
REMARK  300  A    between atoms: _746  and  _748
REMARK  301  A    between atoms: _748  and  _749
REMARK  302  A    between atoms: _752  and  _754
REMARK  303  A    between atoms: _754  and  _755
REMARK  304  A    between atoms: _754  and  _757
REMARK  305  A    between atoms: _757  and  _758
REMARK  306  A    between atoms: _763  and  _764
REMARK  307  A    between atoms: _766  and  _768
REMARK  308  A    between atoms: _768  and  _769
REMARK  309  A    between atoms: _768  and  _771
REMARK  310  A    between atoms: _771  and  _772
REMARK  311  A    between atoms: _775  and  _777
REMARK  312  A    between atoms: _777  and  _778
REMARK  313  A    between atoms: _777  and  _780
REMARK  314  A    between atoms: _780  and  _781
REMARK  315  A    between atoms: _784  and  _786
REMARK  316  A    between atoms: _786  and  _787
REMARK  317  A    between atoms: _786  and  _789
REMARK  318  A    between atoms: _789  and  _790
REMARK  319  A    between atoms: _791  and  _793
REMARK  320  A    between atoms: _793  and  _794
REMARK  321  A    between atoms: _793  and  _796
REMARK  322  A    between atoms: _799  and  _801
REMARK  323  A    between atoms: _801  and  _802
REMARK  324  A    between atoms: _801  and  _804
REMARK  325  A    between atoms: _804  and  _805
REMARK  326  A    between atoms: _805  and  _806
REMARK  327  A    between atoms: _809  and  _811
REMARK  328  A    between atoms: _811  and  _812
REMARK  329  A    between atoms: _811  and  _814
REMARK  330  A    between atoms: _814  and  _815
REMARK  331  A    between atoms: _825  and  _827
REMARK  332  A    between atoms: _827  and  _828
REMARK  333  A    between atoms: _827  and  _830
REMARK  334  A    between atoms: _830  and  _831
REMARK  335  A    between atoms: _834  and  _836
REMARK  336  A    between atoms: _836  and  _837
REMARK  337  A    between atoms: _836  and  _839
REMARK  338  A    between atoms: _839  and  _840
REMARK  339  A    between atoms: _840  and  _841
REMARK  340  A    between atoms: _841  and  _842
REMARK  341  A    between atoms: _851  and  _853
REMARK  342  A    between atoms: _853  and  _854
REMARK  343  A    between atoms: _853  and  _856
REMARK  344  A    between atoms: _856  and  _857
REMARK  345  A    between atoms: _862  and  _863
REMARK                            x       y       z     vdW  Elec       q    Type
REMARK                         _______ _______ _______ _____ _____    ______ ____
ROOT
ATOM      1  CG  TRP A   1      48.076  56.624 -16.891  0.00  0.00    -0.002 A 
ATOM      2  CD2 TRP A   1      47.992  56.493 -15.472  0.00  0.00    +0.013 A 
ATOM      3  CE3 TRP A   1      47.949  55.395 -14.599  0.00  0.00    +0.001 A 
ATOM      4  CZ3 TRP A   1      47.870  55.632 -13.228  0.00  0.00    +0.000 A 
ATOM      5  CH2 TRP A   1      47.835  56.948 -12.721  0.00  0.00    +0.001 A 
ATOM      6  CZ2 TRP A   1      47.875  58.040 -13.556  0.00  0.00    +0.017 A 
ATOM      7  CE2 TRP A   1      47.953  57.803 -14.929  0.00  0.00    +0.056 A 
ATOM      8  NE1 TRP A   1      48.006  58.686 -15.978  0.00  0.00    -0.352 N 
ATOM      9  HE1 TRP A   1      47.992  59.723 -15.897  0.00  0.00    +0.166 HD
ATOM     10  CD1 TRP A   1      48.081  57.975 -17.157  0.00  0.00    +0.068 A 
ENDROOT
BRANCH   1  11
ATOM     11  CB  TRP A   1      48.171  55.510 -17.877  0.00  0.00    +0.053 C 
BRANCH  11  12
ATOM     12  CA  TRP A   1      49.587  54.991 -18.143  0.00  0.00    +0.137 C 
BRANCH  12  13
ATOM     13  N   TRP A   1      50.486  56.099 -18.444  0.00  0.00    -0.239 NA
ATOM     14  H   TRP A   1      50.197  56.791 -19.164  0.00  0.00    +0.142 HD
ENDBRANCH  12  13
BRANCH  12  15
ATOM     15  C   TRP A   1      49.469  54.020 -19.308  0.00  0.00    +0.224 C 
ATOM     16  O   TRP A   1      49.635  54.403 -20.464  0.00  0.00    -0.287 OA
ENDBRANCH  12  15
ENDBRANCH  11  12
ENDBRANCH   1  11
TORSDOF 4
REMARK  Name = ../refined-set-2016/1fzj/1fzj_pocket.pdb
REMARK  345 active torsions:
REMARK  status: ('A' for Active; 'I' for Inactive)
REMARK    1  A    between atoms: _1  and  _3
REMARK    2  A    between atoms: _3  and  _4
REMARK    3  A    between atoms: _3  and  _6
REMARK    4  A    between atoms: _6  and  _7
REMARK    5  A    between atoms: _10  and  _12
REMARK    6  A    between atoms: _12  and  _13
REMARK    7  A    between atoms: _12  and  _15
REMARK    8  A    between atoms: _15  and  _16
REMARK    9  A    between atoms: _16  and  _17
REMARK   10  A    between atoms: _17  and  _18
REMARK   11  A    between atoms: _27  and  _29
REMARK   12  A    between atoms: _29  and  _30
REMARK   13  A    between atoms: _29  and  _32
REMARK   14  A    between atoms: _32  and  _33
REMARK   15  A    between atoms: _38  and  _39
REMARK   16  A    between atoms: _41  and  _43
REMARK   17  A    between atoms: _43  and  _44
REMARK   18  A    between atoms: _43  and  _46
REMARK   19  A    between atoms: _46  and  _47
REMARK   20  A    between atoms: _53  and  _55
REMARK   21  A    between atoms: _55  and  _56
REMARK   22  A    between atoms: _55  and  _58
REMARK   23  A    between atoms: _61  and  _63
REMARK   24  A    between atoms: _63  and  _64
REMARK   25  A    between atoms: _63  and  _66
REMARK   26  A    between atoms: _66  and  _67
REMARK   27  A    between atoms: _70  and  _72
REMARK   28  A    between atoms: _72  and  _73
REMARK   29  A    between atoms: _72  and  _75
REMARK   30  A    between atoms: _75  and  _76
REMARK   31  A    between atoms: _81  and  _82
REMARK   32  A    between atoms: _84  and  _86
REMARK   33  A    between atoms: _86  and  _87
REMARK   34  A    between atoms: _86  and  _89
REMARK   35  A    between atoms: _89  and  _90
REMARK   36  A    between atoms: _90  and  _91
REMARK   37  A    between atoms: _93  and  _95
REMARK   38  A    between atoms: _95  and  _96
REMARK   39  A    between atoms: _95  and  _98
REMARK   40  A    between atoms: _98  and  _99
REMARK   41  A    between atoms: _99  and  _100
REMARK   42  A    between atoms: _103  and  _105
REMARK   43  A    between atoms: _105  and  _106
REMARK   44  A    between atoms: _105  and  _108
REMARK   45  A    between atoms: _111  and  _113
REMARK   46  A    between atoms: _113  and  _114
REMARK   47  A    between atoms: _113  and  _116
REMARK   48  A    between atoms: _119  and  _121
REMARK   49  A    between atoms: _121  and  _122
REMARK   50  A    between atoms: _121  and  _124
REMARK   51  A    between atoms: _124  and  _125
REMARK   52  A    between atoms: _131  and  _133
REMARK   53  A    between atoms: _133  and  _134
REMARK   54  A    between atoms: _133  and  _136
REMARK   55  A    between atoms: _139  and  _141
REMARK   56  A    between atoms: _141  and  _142
REMARK   57  A    between atoms: _141  and  _144
REMARK   58  A    between atoms: _144  and  _145
REMARK   59  A    between atoms: _150  and  _151
REMARK   60  A    between atoms: _153  and  _155
REMARK   61  A    between atoms: _155  and  _156
REMARK   62  A    between atoms: _155  and  _158
REMARK   63  A    between atoms: _158  and  _159
REMARK   64  A    between atoms: _159  and  _160
REMARK   65  A    between atoms: _162  and  _164
REMARK   66  A    between atoms: _164  and  _165
REMARK   67  A    between atoms: _164  and  _167
REMARK   68  A    between atoms: _167  and  _168
REMARK   69  A    between atoms: _168  and  _169
REMARK   70  A    between atoms: _172  and  _174
REMARK   71  A    between atoms: _174  and  _175
REMARK   72  A    between atoms: _174  and  _177
REMARK   73  A    between atoms: _177  and  _178
REMARK   74  A    between atoms: _178  and  _179
REMARK   75  A    between atoms: _182  and  _184
REMARK   76  A    between atoms: _184  and  _185
REMARK   77  A    between atoms: _184  and  _187
REMARK   78  A    between atoms: _187  and  _188
REMARK   79  A    between atoms: _193  and  _194
REMARK   80  A    between atoms: _196  and  _198
REMARK   81  A    between atoms: _198  and  _199
REMARK   82  A    between atoms: _198  and  _201
REMARK   83  A    between atoms: _201  and  _202
REMARK   84  A    between atoms: _212  and  _214
REMARK   85  A    between atoms: _214  and  _215
REMARK   86  A    between atoms: _214  and  _217
REMARK   87  A    between atoms: _217  and  _218
REMARK   88  A    between atoms: _218  and  _219
REMARK   89  A    between atoms: _222  and  _224
REMARK   90  A    between atoms: _224  and  _225
REMARK   91  A    between atoms: _224  and  _227
REMARK   92  A    between atoms: _227  and  _228
REMARK   93  A    between atoms: _228  and  _229
REMARK   94  A    between atoms: _229  and  _230
REMARK   95  A    between atoms: _239  and  _241
REMARK   96  A    between atoms: _241  and  _242
REMARK   97  A    between atoms: _241  and  _244
REMARK   98  A    between atoms: _244  and  _245
REMARK   99  A    between atoms: _245  and  _246
REMARK  100  A    between atoms: _249  and  _251
REMARK  101  A    between atoms: _251  and  _252
REMARK  102  A    between atoms: _251  and  _254
REMARK  103  A    between atoms: _254  and  _255
REMARK  104  A    between atoms: _258  and  _260
REMARK  105  A    between atoms: _260  and  _261
REMARK  106  A    between atoms: _260  and  _263
REMARK  107  A    between atoms: _263  and  _264
REMARK  108  A    between atoms: _264  and  _265
REMARK  109  A    between atoms: _270  and  _272
REMARK  110  A    between atoms: _272  and  _273
REMARK  111  A    between atoms: _272  and  _275
REMARK  112  A    between atoms: _275  and  _276
REMARK  113  A    between atoms: _276  and  _277
REMARK  114  A    between atoms: _277  and  _278
REMARK  115  A    between atoms: _278  and  _279
REMARK  116  A    between atoms: _283  and  _285
REMARK  117  A    between atoms: _285  and  _286
REMARK  118  A    between atoms: _289  and  _291
REMARK  119  A    between atoms: _291  and  _292
REMARK  120  A    between atoms: _294  and  _296
REMARK  121  A    between atoms: _296  and  _297
REMARK  122  A    between atoms: _296  and  _299
REMARK  123  A    between atoms: _299  and  _300
REMARK  124  A    between atoms: _305  and  _307
REMARK  125  A    between atoms: _307  and  _308
REMARK  126  A    between atoms: _307  and  _310
REMARK  127  A    between atoms: _310  and  _311
REMARK  128  A    between atoms: _311  and  _312
REMARK  129  A    between atoms: _315  and  _317
REMARK  130  A    between atoms: _317  and  _318
REMARK  131  A    between atoms: _317  and  _320
REMARK  132  A    between atoms: _320  and  _321
REMARK  133  A    between atoms: _323  and  _325
REMARK  134  A    between atoms: _325  and  _326
REMARK  135  A    between atoms: _325  and  _328
REMARK  136  A    between atoms: _328  and  _329
REMARK  137  A    between atoms: _335  and  _337
REMARK  138  A    between atoms: _337  and  _338
REMARK  139  A    between atoms: _337  and  _340
REMARK  140  A    between atoms: _343  and  _345
REMARK  141  A    between atoms: _345  and  _346
REMARK  142  A    between atoms: _345  and  _348
REMARK  143  A    between atoms: _348  and  _349
REMARK  144  A    between atoms: _352  and  _354
REMARK  145  A    between atoms: _354  and  _355
REMARK  146  A    between atoms: _354  and  _357
REMARK  147  A    between atoms: _357  and  _358
REMARK  148  A    between atoms: _361  and  _363
REMARK  149  A    between atoms: _363  and  _364
REMARK  150  A    between atoms: _363  and  _366
REMARK  151  A    between atoms: _366  and  _367
REMARK  152  A    between atoms: _370  and  _372
REMARK  153  A    between atoms: _372  and  _373
REMARK  154  A    between atoms: _372  and  _375
REMARK  155  A    between atoms: _375  and  _376
REMARK  156  A    between atoms: _379  and  _381
REMARK  157  A    between atoms: _381  and  _382
REMARK  158  A    between atoms: _381  and  _384
REMARK  159  A    between atoms: _384  and  _385
REMARK  160  A    between atoms: _390  and  _391
REMARK  161  A    between atoms: _393  and  _395
REMARK  162  A    between atoms: _395  and  _396
REMARK  163  A    between atoms: _395  and  _398
REMARK  164  A    between atoms: _398  and  _399
REMARK  165  A    between atoms: _404  and  _405
REMARK  166  A    between atoms: _407  and  _409
REMARK  167  A    between atoms: _409  and  _410
REMARK  168  A    between atoms: _409  and  _412
REMARK  169  A    between atoms: _412  and  _413
REMARK  170  A    between atoms: _416  and  _418
REMARK  171  A    between atoms: _418  and  _419
REMARK  172  A    between atoms: _418  and  _421
REMARK  173  A    between atoms: _421  and  _422
REMARK  174  A    between atoms: _422  and  _423
REMARK  175  A    between atoms: _428  and  _430
REMARK  176  A    between atoms: _430  and  _431
REMARK  177  A    between atoms: _430  and  _433
REMARK  178  A    between atoms: _436  and  _438
REMARK  179  A    between atoms: _438  and  _439
REMARK  180  A    between atoms: _438  and  _441
REMARK  181  A    between atoms: _441  and  _442
REMARK  182  A    between atoms: _445  and  _447
REMARK  183  A    between atoms: _447  and  _448
REMARK  184  A    between atoms: _447  and  _450
REMARK  185  A    between atoms: _450  and  _451
REMARK  186  A    between atoms: _453  and  _455
REMARK  187  A    between atoms: _455  and  _456
REMARK  188  A    between atoms: _458  and  _460
REMARK  189  A    between atoms: _460  and  _461
REMARK  190  A    between atoms: _460  and  _463
REMARK  191  A    between atoms: _463  and  _464
REMARK  192  A    between atoms: _464  and  _790
REMARK  193  A    between atoms: _465  and  _467
REMARK  194  A    between atoms: _467  and  _468
REMARK  195  A    between atoms: _467  and  _470
REMARK  196  A    between atoms: _470  and  _471
REMARK  197  A    between atoms: _476  and  _477
REMARK  198  A    between atoms: _479  and  _481
REMARK  199  A    between atoms: _481  and  _482
REMARK  200  A    between atoms: _481  and  _484
REMARK  201  A    between atoms: _484  and  _485
REMARK  202  A    between atoms: _485  and  _486
REMARK  203  A    between atoms: _491  and  _493
REMARK  204  A    between atoms: _493  and  _494
REMARK  205  A    between atoms: _493  and  _496
REMARK  206  A    between atoms: _496  and  _497
REMARK  207  A    between atoms: _497  and  _498
REMARK  208  A    between atoms: _503  and  _505
REMARK  209  A    between atoms: _505  and  _506
REMARK  210  A    between atoms: _505  and  _508
REMARK  211  A    between atoms: _508  and  _509
REMARK  212  A    between atoms: _514  and  _515
REMARK  213  A    between atoms: _517  and  _519
REMARK  214  A    between atoms: _519  and  _520
REMARK  215  A    between atoms: _523  and  _525
REMARK  216  A    between atoms: _525  and  _526
REMARK  217  A    between atoms: _525  and  _528
REMARK  218  A    between atoms: _528  and  _529
REMARK  219  A    between atoms: _534  and  _535
REMARK  220  A    between atoms: _537  and  _539
REMARK  221  A    between atoms: _539  and  _540
REMARK  222  A    between atoms: _539  and  _542
REMARK  223  A    between atoms: _542  and  _543
REMARK  224  A    between atoms: _548  and  _549
REMARK  225  A    between atoms: _551  and  _553
REMARK  226  A    between atoms: _553  and  _554
REMARK  227  A    between atoms: _553  and  _556
REMARK  228  A    between atoms: _556  and  _557
REMARK  229  A    between atoms: _560  and  _562
REMARK  230  A    between atoms: _562  and  _563
REMARK  231  A    between atoms: _562  and  _565
REMARK  232  A    between atoms: _565  and  _566
REMARK  233  A    between atoms: _576  and  _578
REMARK  234  A    between atoms: _578  and  _579
REMARK  235  A    between atoms: _582  and  _584
REMARK  236  A    between atoms: _584  and  _585
REMARK  237  A    between atoms: _588  and  _590
REMARK  238  A    between atoms: _590  and  _591
REMARK  239  A    between atoms: _590  and  _593
REMARK  240  A    between atoms: _593  and  _594
REMARK  241  A    between atoms: _597  and  _599
REMARK  242  A    between atoms: _599  and  _600
REMARK  243  A    between atoms: _599  and  _602
REMARK  244  A    between atoms: _602  and  _603
REMARK  245  A    between atoms: _606  and  _608
REMARK  246  A    between atoms: _608  and  _609
REMARK  247  A    between atoms: _608  and  _611
REMARK  248  A    between atoms: _611  and  _612
REMARK  249  A    between atoms: _615  and  _617
REMARK  250  A    between atoms: _617  and  _618
REMARK  251  A    between atoms: _617  and  _620
REMARK  252  A    between atoms: _620  and  _621
REMARK  253  A    between atoms: _621  and  _622
REMARK  254  A    between atoms: _622  and  _623
REMARK  255  A    between atoms: _623  and  _624
REMARK  256  A    between atoms: _628  and  _630
REMARK  257  A    between atoms: _630  and  _631
REMARK  258  A    between atoms: _630  and  _633
REMARK  259  A    between atoms: _633  and  _634
REMARK  260  A    between atoms: _639  and  _641
REMARK  261  A    between atoms: _641  and  _642
REMARK  262  A    between atoms: _641  and  _644
REMARK  263  A    between atoms: _644  and  _645
REMARK  264  A    between atoms: _645  and  _646
REMARK  265  A    between atoms: _646  and  _647
REMARK  266  A    between atoms: _647  and  _648
REMARK  267  A    between atoms: _652  and  _654
REMARK  268  A    between atoms: _654  and  _655
REMARK  269  A    between atoms: _654  and  _657
REMARK  270  A    between atoms: _657  and  _658
REMARK  271  A    between atoms: _668  and  _670
REMARK  272  A    between atoms: _670  and  _671
REMARK  273  A    between atoms: _674  and  _676
REMARK  274  A    between atoms: _676  and  _677
REMARK  275  A    between atoms: _679  and  _681
REMARK  276  A    between atoms: _681  and  _682
REMARK  277  A    between atoms: _685  and  _687
REMARK  278  A    between atoms: _687  and  _688
REMARK  279  A    between atoms: _691  and  _693
REMARK  280  A    between atoms: _693  and  _694
REMARK  281  A    between atoms: _693  and  _696
REMARK  282  A    between atoms: _696  and  _697
REMARK  283  A    between atoms: _697  and  _698
REMARK  284  A    between atoms: _701  and  _703
REMARK  285  A    between atoms: _703  and  _704
REMARK  286  A    between atoms: _703  and  _706
REMARK  287  A    between atoms: _706  and  _707
REMARK  288  A    between atoms: _712  and  _713
REMARK  289  A    between atoms: _715  and  _717
REMARK  290  A    between atoms: _717  and  _718
REMARK  291  A    between atoms: _717  and  _720
REMARK  292  A    between atoms: _720  and  _721
REMARK  293  A    between atoms: _726  and  _727
REMARK  294  A    between atoms: _729  and  _731
REMARK  295  A    between atoms: _731  and  _732
REMARK  296  A    between atoms: _731  and  _734
REMARK  297  A    between atoms: _734  and  _735
REMARK  298  A    between atoms: _735  and  _736
REMARK  299  A    between atoms: _736  and  _737
REMARK  300  A    between atoms: _746  and  _748
REMARK  301  A    between atoms: _748  and  _749
REMARK  302  A    between atoms: _752  and  _754
REMARK  303  A    between atoms: _754  and  _755
REMARK  304  A    between atoms: _754  and  _757
REMARK  305  A    between atoms: _757  and  _758
REMARK  306  A    between atoms: _763  and  _764
REMARK  307  A    between atoms: _766  and  _768
REMARK  308  A    between atoms: _768  and  _769
REMARK  309  A    between atoms: _768  and  _771
REMARK  310  A    between atoms: _771  and  _772
REMARK  311  A    between atoms: _775  and  _777
REMARK  312  A    between atoms: _777  and  _778
REMARK  313  A    between atoms: _777  and  _780
REMARK  314  A    between atoms: _780  and  _781
REMARK  315  A    between atoms: _784  and  _786
REMARK  316  A    between atoms: _786  and  _787
REMARK  317  A    between atoms: _786  and  _789
REMARK  318  A    between atoms: _789  and  _790
REMARK  319  A    between atoms: _791  and  _793
REMARK  320  A    between atoms: _793  and  _794
REMARK  321  A    between atoms: _793  and  _796
REMARK  322  A    between atoms: _799  and  _801
REMARK  323  A    between atoms: _801  and  _802
REMARK  324  A    between atoms: _801  and  _804
REMARK  325  A    between atoms: _804  and  _805
REMARK  326  A    between atoms: _805  and  _806
REMARK  327  A    between atoms: _809  and  _811
REMARK  328  A    between atoms: _811  and  _812
REMARK  329  A    between atoms: _811  and  _814
REMARK  330  A    between atoms: _814  and  _815
REMARK  331  A    between atoms: _825  and  _827
REMARK  332  A    between atoms: _827  and  _828
REMARK  333  A    between atoms: _827  and  _830
REMARK  334  A    between atoms: _830  and  _831
REMARK  335  A    between atoms: _834  and  _836
REMARK  336  A    between atoms: _836  and  _837
REMARK  337  A    between atoms: _836  and  _839
REMARK  338  A    between atoms: _839  and  _840
REMARK  339  A    between atoms: _840  and  _841
REMARK  340  A    between atoms: _841  and  _842
REMARK  341  A    between atoms: _851  and  _853
REMARK  342  A    between atoms: _853  and  _854
REMARK  343  A    between atoms: _853  and  _856
REMARK  344  A    between atoms: _856  and  _857
REMARK  345  A    between atoms: _862  and  _863
REMARK                            x       y       z     vdW  Elec       q    Type
REMARK                         _______ _______ _______ _____ _____    ______ ____
ROOT
ATOM      1  CA  LYS A   6      43.829  57.369 -20.012  0.00  0.00    +0.149 C 
ENDROOT
BRANCH   1   2
ATOM      2  C   LYS A   6      43.811  58.779 -20.584  0.00  0.00    +0.241 C 
ATOM      3  O   LYS A   6      44.570  59.648 -20.147  0.00  0.00    -0.273 OA
ATOM      4  N   HIS A   7      42.940  59.002 -21.562  0.00  0.00    -0.297 N 
ATOM      5  H   HIS A   7      42.322  58.231 -21.887  0.00  0.00    +0.150 HD
BRANCH   4   6
ATOM      6  CA  HIS A   7      42.843  60.314 -22.182  0.00  0.00    +0.155 C 
BRANCH   6   7
ATOM      7  C   HIS A   7      42.401  61.363 -21.152  0.00  0.00    +0.241 C 
ATOM      8  N   LYS A   8      41.441  61.021 -20.293  0.00  0.00    -0.297 N 
ATOM      9  H   LYS A   8      41.005  60.079 -20.357  0.00  0.00    +0.150 HD
ATOM     10  O   HIS A   7      42.935  62.474 -21.134  0.00  0.00    -0.273 OA
BRANCH   8  11
ATOM     11  CA  LYS A   8      40.995  61.956 -19.261  0.00  0.00    +0.149 C 
BRANCH  11  12
ATOM     12  C   LYS A   8      42.142  62.253 -18.289  0.00  0.00    +0.241 C 
ATOM     13  N   TRP A   9      42.850  61.204 -17.884  0.00  0.00    -0.298 N 
ATOM     14  H   TRP A   9      42.619  60.254 -18.238  0.00  0.00    +0.150 HD
ATOM     15  O   LYS A   8      42.378  63.406 -17.887  0.00  0.00    -0.273 OA
BRANCH  13  16
ATOM     16  CA  TRP A   9      43.947  61.384 -16.947  0.00  0.00    +0.141 C 
BRANCH  16  17
ATOM     17  C   TRP A   9      45.123  62.187 -17.482  0.00  0.00    +0.227 C 
ATOM     18  O   TRP A   9      45.788  62.884 -16.725  0.00  0.00    -0.286 OA
ENDBRANCH  16  17
BRANCH  16  19
ATOM     19  CB  TRP A   9      44.418  60.018 -16.426  0.00  0.00    +0.056 C 
BRANCH  19  20
ATOM     20  CG  TRP A   9      43.440  59.427 -15.445  0.00  0.00    -0.002 A 
ATOM     21  CD2 TRP A   9      43.569  58.184 -14.745  0.00  0.00    +0.013 A 
ATOM     22  CE2 TRP A   9      42.430  58.049 -13.917  0.00  0.00    +0.056 A 
ATOM     23  CZ2 TRP A   9      42.234  56.937 -13.084  0.00  0.00    +0.017 A 
ATOM     24  CH2 TRP A   9      43.200  55.958 -13.096  0.00  0.00    +0.001 A 
ATOM     25  CZ3 TRP A   9      44.343  56.060 -13.909  0.00  0.00    +0.000 A 
ATOM     26  NE1 TRP A   9      41.644  59.159 -14.107  0.00  0.00    -0.352 N 
ATOM     27  HE1 TRP A   9      40.737  59.347 -13.635  0.00  0.00    +0.166 HD
ATOM     28  CE3 TRP A   9      44.540  57.169 -14.738  0.00  0.00    +0.001 A 
ATOM     29  CD1 TRP A   9      42.255  59.982 -15.025  0.00  0.00    +0.068 A 
ENDBRANCH  19  20
ENDBRANCH  16  19
ENDBRANCH  13  16
ENDBRANCH  11  12
BRANCH  11  30
ATOM     30  CB  LYS A   8      39.830  61.380 -18.444  0.00  0.00    +0.029 C 
BRANCH  30  31
ATOM     31  CG  LYS A   8      38.512  61.153 -19.181  0.00  0.00    +0.000 C 
BRANCH  31  32
ATOM     32  CD  LYS A   8      37.429  60.780 -18.167  0.00  0.00    -0.024 C 
BRANCH  32  33
ATOM     33  CE  LYS A   8      36.110  60.416 -18.819  0.00  0.00    -0.086 C 
BRANCH  33  34
ATOM     34  NZ  LYS A   8      35.058  60.215 -17.770  0.00  0.00    +0.380 N 
ATOM     35  HZ1 LYS A   8      35.349  59.447 -17.132  0.00  0.00    -0.089 HD
ATOM     36  HZ2 LYS A   8      34.941  61.093 -17.226  0.00  0.00    -0.089 HD
ATOM     37  HZ3 LYS A   8      34.158  59.966 -18.227  0.00  0.00    -0.089 HD
ENDBRANCH  33  34
ENDBRANCH  32  33
ENDBRANCH  31  32
ENDBRANCH  30  31
ENDBRANCH  11  30
ENDBRANCH   8  11
ENDBRANCH   6   7
BRANCH   6  38
ATOM     38  CB  HIS A   7      41.881  60.281 -23.381  0.00  0.00    +0.076 C 
BRANCH  38  39
ATOM     39  CG  HIS A   7      42.380  59.473 -24.545  0.00  0.00    +0.082 A 
ATOM     40  CD2 HIS A   7      43.721  59.292 -24.811  0.00  0.00    +0.115 A 
ATOM     41  NE2 HIS A   7      43.862  58.611 -25.934  0.00  0.00    -0.221 NA
ATOM     42  CE1 HIS A   7      42.660  58.339 -26.408  0.00  0.00    +0.199 A 
ATOM     43  ND1 HIS A   7      41.715  58.863 -25.556  0.00  0.00    -0.227 NA
ENDBRANCH  38  39
ENDBRANCH   6  38
ENDBRANCH   4   6
ENDBRANCH   1   2
BRANCH   1  46
ATOM     44  C   THR A   5      41.623  57.589 -19.020  0.00  0.00    +0.243 C 
ATOM     45  O   THR A   5      41.946  58.623 -18.416  0.00  0.00    -0.273 OA
ATOM     46  N   LYS A   6      42.461  56.914 -19.802  0.00  0.00    -0.297 N 
ATOM     47  H   LYS A   6      42.134  56.046 -20.272  0.00  0.00    +0.150 HD
BRANCH  44  48
ATOM     48  CA  THR A   5      40.219  57.013 -18.883  0.00  0.00    +0.176 C 
BRANCH  48  50
ATOM     49  C   ILE A   4      39.496  57.423 -21.170  0.00  0.00    +0.241 C 
ATOM     50  N   THR A   5      39.736  56.563 -20.181  0.00  0.00    -0.295 N 
ATOM     51  H   THR A   5      39.575  55.548 -20.340  0.00  0.00    +0.150 HD
ATOM     52  O   ILE A   4      39.641  58.649 -21.054  0.00  0.00    -0.273 OA
BRANCH  49  53
ATOM     53  CA  ILE A   4      39.014  56.813 -22.474  0.00  0.00    +0.149 C 
BRANCH  53  55
ATOM     54  C   LEU A   3      41.101  55.656 -22.960  0.00  0.00    +0.241 C 
ATOM     55  N   ILE A   4      39.793  55.602 -22.732  0.00  0.00    -0.297 N 
ATOM     56  H   ILE A   4      39.313  54.679 -22.737  0.00  0.00    +0.150 HD
ATOM     57  O   LEU A   3      41.730  56.716 -22.986  0.00  0.00    -0.273 OA
BRANCH  54  58
ATOM     58  CA  LEU A   3      41.818  54.317 -23.183  0.00  0.00    +0.149 C 
BRANCH  58  61
ATOM     59  C   ALA A   2      41.192  53.344 -21.059  0.00  0.00    +0.241 C 
ATOM     60  O   ALA A   2      41.784  54.226 -20.442  0.00  0.00    -0.273 OA
ATOM     61  N   LEU A   3      41.165  53.291 -22.389  0.00  0.00    -0.297 N 
ATOM     62  H   LEU A   3      40.672  52.508 -22.864  0.00  0.00    +0.150 HD
BRANCH  59  63
ATOM     63  CA  ALA A   2      40.471  52.236 -20.302  0.00  0.00    +0.149 C 
ATOM     64  CB  ALA A   2      41.460  51.181 -19.888  0.00  0.00    +0.031 C 
BRANCH  63  66
ATOM     65  C   ALA A   1      38.380  52.381 -21.529  0.00  0.00    +0.238 C 
ATOM     66  N   ALA A   2      39.407  51.649 -21.101  0.00  0.00    -0.297 N 
ATOM     67  H   ALA A   2      39.449  50.638 -21.343  0.00  0.00    +0.150 HD
ATOM     68  O   ALA A   1      38.270  53.591 -21.293  0.00  0.00    -0.274 OA
BRANCH  65  69
ATOM     69  CA  ALA A   1      37.332  51.645 -22.362  0.00  0.00    +0.145 C 
ATOM     70  CB  ALA A   1      36.557  50.663 -21.487  0.00  0.00    +0.028 C 
BRANCH  69  71
ATOM     71  N   ALA A   1      38.057  50.936 -23.407  0.00  0.00    -0.238 NA
ATOM     72  H   ALA A   1      38.112  49.898 -23.383  0.00  0.00    +0.142 HD
ENDBRANCH  69  71
ENDBRANCH  65  69
ENDBRANCH  63  66
ENDBRANCH  59  63
ENDBRANCH  58  61
BRANCH  58  73
ATOM     73  CB  LEU A   3      41.812  53.936 -24.671  0.00  0.00    +0.029 C 
BRANCH  73  74
ATOM     74  CG  LEU A   3      42.582  54.828 -25.642  0.00  0.00    +0.002 C 
ATOM     75  CD2 LEU A   3      44.053  54.963 -25.212  0.00  0.00    +0.000 C 
ATOM     76  CD1 LEU A   3      42.485  54.236 -27.042  0.00  0.00    +0.000 C 
ENDBRANCH  73  74
ENDBRANCH  58  73
ENDBRANCH  54  58
ENDBRANCH  53  55
BRANCH  53  77
ATOM     77  CB  ILE A   4      37.523  56.506 -22.345  0.00  0.00    +0.027 C 
ATOM     78  CG2 ILE A   4      36.758  57.770 -21.886  0.00  0.00    +0.002 C 
BRANCH  77  79
ATOM     79  CG1 ILE A   4      36.983  56.006 -23.686  0.00  0.00    +0.002 C 
ATOM     80  CD1 ILE A   4      35.590  55.428 -23.582  0.00  0.00    +0.000 C 
ENDBRANCH  77  79
ENDBRANCH  53  77
ENDBRANCH  49  53
ENDBRANCH  48  50
BRANCH  48  81
ATOM     81  CB  THR A   5      40.266  55.859 -17.850  0.00  0.00    +0.137 C 
ATOM     82  CG2 THR A   5      40.912  56.323 -16.561  0.00  0.00    +0.034 C 
BRANCH  81  83
ATOM     83  OG1 THR A   5      38.937  55.419 -17.562  0.00  0.00    -0.382 OA
ATOM     84  HG1 THR A   5      38.414  56.173 -17.190  0.00  0.00    +0.210 HD
ENDBRANCH  81  83
ENDBRANCH  48  81
ENDBRANCH  44  48
ENDBRANCH   1  46
BRANCH   1  85
ATOM     85  CB  LYS A   6      44.560  56.436 -20.979  0.00  0.00    +0.029 C 
BRANCH  85  86
ATOM     86  CG  LYS A   6      46.000  56.831 -21.298  0.00  0.00    +0.000 C 
BRANCH  86  87
ATOM     87  CD  LYS A   6      46.616  55.821 -22.269  0.00  0.00    -0.024 C 
BRANCH  87  88
ATOM     88  CE  LYS A   6      48.118  55.973 -22.414  0.00  0.00    -0.086 C 
BRANCH  88  89
ATOM     89  NZ  LYS A   6      48.498  57.091 -23.289  0.00  0.00    +0.380 N 
ATOM     90  HZ1 LYS A   6      48.126  57.979 -22.896  0.00  0.00    -0.089 HD
ATOM     91  HZ2 LYS A   6      49.535  57.145 -23.350  0.00  0.00    -0.089 HD
ATOM     92  HZ3 LYS A   6      48.102  56.937 -24.238  0.00  0.00    -0.089 HD
ENDBRANCH  88  89
ENDBRANCH  87  88
ENDBRANCH  86  87
ENDBRANCH  85  86
ENDBRANCH   1  85
TORSDOF 38
REMARK  Name = ../refined-set-2016/1fzj/1fzj_pocket.pdb
REMARK  345 active torsions:
REMARK  status: ('A' for Active; 'I' for Inactive)
REMARK    1  A    between atoms: _1  and  _3
REMARK    2  A    between atoms: _3  and  _4
REMARK    3  A    between atoms: _3  and  _6
REMARK    4  A    between atoms: _6  and  _7
REMARK    5  A    between atoms: _10  and  _12
REMARK    6  A    between atoms: _12  and  _13
REMARK    7  A    between atoms: _12  and  _15
REMARK    8  A    between atoms: _15  and  _16
REMARK    9  A    between atoms: _16  and  _17
REMARK   10  A    between atoms: _17  and  _18
REMARK   11  A    between atoms: _27  and  _29
REMARK   12  A    between atoms: _29  and  _30
REMARK   13  A    between atoms: _29  and  _32
REMARK   14  A    between atoms: _32  and  _33
REMARK   15  A    between atoms: _38  and  _39
REMARK   16  A    between atoms: _41  and  _43
REMARK   17  A    between atoms: _43  and  _44
REMARK   18  A    between atoms: _43  and  _46
REMARK   19  A    between atoms: _46  and  _47
REMARK   20  A    between atoms: _53  and  _55
REMARK   21  A    between atoms: _55  and  _56
REMARK   22  A    between atoms: _55  and  _58
REMARK   23  A    between atoms: _61  and  _63
REMARK   24  A    between atoms: _63  and  _64
REMARK   25  A    between atoms: _63  and  _66
REMARK   26  A    between atoms: _66  and  _67
REMARK   27  A    between atoms: _70  and  _72
REMARK   28  A    between atoms: _72  and  _73
REMARK   29  A    between atoms: _72  and  _75
REMARK   30  A    between atoms: _75  and  _76
REMARK   31  A    between atoms: _81  and  _82
REMARK   32  A    between atoms: _84  and  _86
REMARK   33  A    between atoms: _86  and  _87
REMARK   34  A    between atoms: _86  and  _89
REMARK   35  A    between atoms: _89  and  _90
REMARK   36  A    between atoms: _90  and  _91
REMARK   37  A    between atoms: _93  and  _95
REMARK   38  A    between atoms: _95  and  _96
REMARK   39  A    between atoms: _95  and  _98
REMARK   40  A    between atoms: _98  and  _99
REMARK   41  A    between atoms: _99  and  _100
REMARK   42  A    between atoms: _103  and  _105
REMARK   43  A    between atoms: _105  and  _106
REMARK   44  A    between atoms: _105  and  _108
REMARK   45  A    between atoms: _111  and  _113
REMARK   46  A    between atoms: _113  and  _114
REMARK   47  A    between atoms: _113  and  _116
REMARK   48  A    between atoms: _119  and  _121
REMARK   49  A    between atoms: _121  and  _122
REMARK   50  A    between atoms: _121  and  _124
REMARK   51  A    between atoms: _124  and  _125
REMARK   52  A    between atoms: _131  and  _133
REMARK   53  A    between atoms: _133  and  _134
REMARK   54  A    between atoms: _133  and  _136
REMARK   55  A    between atoms: _139  and  _141
REMARK   56  A    between atoms: _141  and  _142
REMARK   57  A    between atoms: _141  and  _144
REMARK   58  A    between atoms: _144  and  _145
REMARK   59  A    between atoms: _150  and  _151
REMARK   60  A    between atoms: _153  and  _155
REMARK   61  A    between atoms: _155  and  _156
REMARK   62  A    between atoms: _155  and  _158
REMARK   63  A    between atoms: _158  and  _159
REMARK   64  A    between atoms: _159  and  _160
REMARK   65  A    between atoms: _162  and  _164
REMARK   66  A    between atoms: _164  and  _165
REMARK   67  A    between atoms: _164  and  _167
REMARK   68  A    between atoms: _167  and  _168
REMARK   69  A    between atoms: _168  and  _169
REMARK   70  A    between atoms: _172  and  _174
REMARK   71  A    between atoms: _174  and  _175
REMARK   72  A    between atoms: _174  and  _177
REMARK   73  A    between atoms: _177  and  _178
REMARK   74  A    between atoms: _178  and  _179
REMARK   75  A    between atoms: _182  and  _184
REMARK   76  A    between atoms: _184  and  _185
REMARK   77  A    between atoms: _184  and  _187
REMARK   78  A    between atoms: _187  and  _188
REMARK   79  A    between atoms: _193  and  _194
REMARK   80  A    between atoms: _196  and  _198
REMARK   81  A    between atoms: _198  and  _199
REMARK   82  A    between atoms: _198  and  _201
REMARK   83  A    between atoms: _201  and  _202
REMARK   84  A    between atoms: _212  and  _214
REMARK   85  A    between atoms: _214  and  _215
REMARK   86  A    between atoms: _214  and  _217
REMARK   87  A    between atoms: _217  and  _218
REMARK   88  A    between atoms: _218  and  _219
REMARK   89  A    between atoms: _222  and  _224
REMARK   90  A    between atoms: _224  and  _225
REMARK   91  A    between atoms: _224  and  _227
REMARK   92  A    between atoms: _227  and  _228
REMARK   93  A    between atoms: _228  and  _229
REMARK   94  A    between atoms: _229  and  _230
REMARK   95  A    between atoms: _239  and  _241
REMARK   96  A    between atoms: _241  and  _242
REMARK   97  A    between atoms: _241  and  _244
REMARK   98  A    between atoms: _244  and  _245
REMARK   99  A    between atoms: _245  and  _246
REMARK  100  A    between atoms: _249  and  _251
REMARK  101  A    between atoms: _251  and  _252
REMARK  102  A    between atoms: _251  and  _254
REMARK  103  A    between atoms: _254  and  _255
REMARK  104  A    between atoms: _258  and  _260
REMARK  105  A    between atoms: _260  and  _261
REMARK  106  A    between atoms: _260  and  _263
REMARK  107  A    between atoms: _263  and  _264
REMARK  108  A    between atoms: _264  and  _265
REMARK  109  A    between atoms: _270  and  _272
REMARK  110  A    between atoms: _272  and  _273
REMARK  111  A    between atoms: _272  and  _275
REMARK  112  A    between atoms: _275  and  _276
REMARK  113  A    between atoms: _276  and  _277
REMARK  114  A    between atoms: _277  and  _278
REMARK  115  A    between atoms: _278  and  _279
REMARK  116  A    between atoms: _283  and  _285
REMARK  117  A    between atoms: _285  and  _286
REMARK  118  A    between atoms: _289  and  _291
REMARK  119  A    between atoms: _291  and  _292
REMARK  120  A    between atoms: _294  and  _296
REMARK  121  A    between atoms: _296  and  _297
REMARK  122  A    between atoms: _296  and  _299
REMARK  123  A    between atoms: _299  and  _300
REMARK  124  A    between atoms: _305  and  _307
REMARK  125  A    between atoms: _307  and  _308
REMARK  126  A    between atoms: _307  and  _310
REMARK  127  A    between atoms: _310  and  _311
REMARK  128  A    between atoms: _311  and  _312
REMARK  129  A    between atoms: _315  and  _317
REMARK  130  A    between atoms: _317  and  _318
REMARK  131  A    between atoms: _317  and  _320
REMARK  132  A    between atoms: _320  and  _321
REMARK  133  A    between atoms: _323  and  _325
REMARK  134  A    between atoms: _325  and  _326
REMARK  135  A    between atoms: _325  and  _328
REMARK  136  A    between atoms: _328  and  _329
REMARK  137  A    between atoms: _335  and  _337
REMARK  138  A    between atoms: _337  and  _338
REMARK  139  A    between atoms: _337  and  _340
REMARK  140  A    between atoms: _343  and  _345
REMARK  141  A    between atoms: _345  and  _346
REMARK  142  A    between atoms: _345  and  _348
REMARK  143  A    between atoms: _348  and  _349
REMARK  144  A    between atoms: _352  and  _354
REMARK  145  A    between atoms: _354  and  _355
REMARK  146  A    between atoms: _354  and  _357
REMARK  147  A    between atoms: _357  and  _358
REMARK  148  A    between atoms: _361  and  _363
REMARK  149  A    between atoms: _363  and  _364
REMARK  150  A    between atoms: _363  and  _366
REMARK  151  A    between atoms: _366  and  _367
REMARK  152  A    between atoms: _370  and  _372
REMARK  153  A    between atoms: _372  and  _373
REMARK  154  A    between atoms: _372  and  _375
REMARK  155  A    between atoms: _375  and  _376
REMARK  156  A    between atoms: _379  and  _381
REMARK  157  A    between atoms: _381  and  _382
REMARK  158  A    between atoms: _381  and  _384
REMARK  159  A    between atoms: _384  and  _385
REMARK  160  A    between atoms: _390  and  _391
REMARK  161  A    between atoms: _393  and  _395
REMARK  162  A    between atoms: _395  and  _396
REMARK  163  A    between atoms: _395  and  _398
REMARK  164  A    between atoms: _398  and  _399
REMARK  165  A    between atoms: _404  and  _405
REMARK  166  A    between atoms: _407  and  _409
REMARK  167  A    between atoms: _409  and  _410
REMARK  168  A    between atoms: _409  and  _412
REMARK  169  A    between atoms: _412  and  _413
REMARK  170  A    between atoms: _416  and  _418
REMARK  171  A    between atoms: _418  and  _419
REMARK  172  A    between atoms: _418  and  _421
REMARK  173  A    between atoms: _421  and  _422
REMARK  174  A    between atoms: _422  and  _423
REMARK  175  A    between atoms: _428  and  _430
REMARK  176  A    between atoms: _430  and  _431
REMARK  177  A    between atoms: _430  and  _433
REMARK  178  A    between atoms: _436  and  _438
REMARK  179  A    between atoms: _438  and  _439
REMARK  180  A    between atoms: _438  and  _441
REMARK  181  A    between atoms: _441  and  _442
REMARK  182  A    between atoms: _445  and  _447
REMARK  183  A    between atoms: _447  and  _448
REMARK  184  A    between atoms: _447  and  _450
REMARK  185  A    between atoms: _450  and  _451
REMARK  186  A    between atoms: _453  and  _455
REMARK  187  A    between atoms: _455  and  _456
REMARK  188  A    between atoms: _458  and  _460
REMARK  189  A    between atoms: _460  and  _461
REMARK  190  A    between atoms: _460  and  _463
REMARK  191  A    between atoms: _463  and  _464
REMARK  192  A    between atoms: _464  and  _790
REMARK  193  A    between atoms: _465  and  _467
REMARK  194  A    between atoms: _467  and  _468
REMARK  195  A    between atoms: _467  and  _470
REMARK  196  A    between atoms: _470  and  _471
REMARK  197  A    between atoms: _476  and  _477
REMARK  198  A    between atoms: _479  and  _481
REMARK  199  A    between atoms: _481  and  _482
REMARK  200  A    between atoms: _481  and  _484
REMARK  201  A    between atoms: _484  and  _485
REMARK  202  A    between atoms: _485  and  _486
REMARK  203  A    between atoms: _491  and  _493
REMARK  204  A    between atoms: _493  and  _494
REMARK  205  A    between atoms: _493  and  _496
REMARK  206  A    between atoms: _496  and  _497
REMARK  207  A    between atoms: _497  and  _498
REMARK  208  A    between atoms: _503  and  _505
REMARK  209  A    between atoms: _505  and  _506
REMARK  210  A    between atoms: _505  and  _508
REMARK  211  A    between atoms: _508  and  _509
REMARK  212  A    between atoms: _514  and  _515
REMARK  213  A    between atoms: _517  and  _519
REMARK  214  A    between atoms: _519  and  _520
REMARK  215  A    between atoms: _523  and  _525
REMARK  216  A    between atoms: _525  and  _526
REMARK  217  A    between atoms: _525  and  _528
REMARK  218  A    between atoms: _528  and  _529
REMARK  219  A    between atoms: _534  and  _535
REMARK  220  A    between atoms: _537  and  _539
REMARK  221  A    between atoms: _539  and  _540
REMARK  222  A    between atoms: _539  and  _542
REMARK  223  A    between atoms: _542  and  _543
REMARK  224  A    between atoms: _548  and  _549
REMARK  225  A    between atoms: _551  and  _553
REMARK  226  A    between atoms: _553  and  _554
REMARK  227  A    between atoms: _553  and  _556
REMARK  228  A    between atoms: _556  and  _557
REMARK  229  A    between atoms: _560  and  _562
REMARK  230  A    between atoms: _562  and  _563
REMARK  231  A    between atoms: _562  and  _565
REMARK  232  A    between atoms: _565  and  _566
REMARK  233  A    between atoms: _576  and  _578
REMARK  234  A    between atoms: _578  and  _579
REMARK  235  A    between atoms: _582  and  _584
REMARK  236  A    between atoms: _584  and  _585
REMARK  237  A    between atoms: _588  and  _590
REMARK  238  A    between atoms: _590  and  _591
REMARK  239  A    between atoms: _590  and  _593
REMARK  240  A    between atoms: _593  and  _594
REMARK  241  A    between atoms: _597  and  _599
REMARK  242  A    between atoms: _599  and  _600
REMARK  243  A    between atoms: _599  and  _602
REMARK  244  A    between atoms: _602  and  _603
REMARK  245  A    between atoms: _606  and  _608
REMARK  246  A    between atoms: _608  and  _609
REMARK  247  A    between atoms: _608  and  _611
REMARK  248  A    between atoms: _611  and  _612
REMARK  249  A    between atoms: _615  and  _617
REMARK  250  A    between atoms: _617  and  _618
REMARK  251  A    between atoms: _617  and  _620
REMARK  252  A    between atoms: _620  and  _621
REMARK  253  A    between atoms: _621  and  _622
REMARK  254  A    between atoms: _622  and  _623
REMARK  255  A    between atoms: _623  and  _624
REMARK  256  A    between atoms: _628  and  _630
REMARK  257  A    between atoms: _630  and  _631
REMARK  258  A    between atoms: _630  and  _633
REMARK  259  A    between atoms: _633  and  _634
REMARK  260  A    between atoms: _639  and  _641
REMARK  261  A    between atoms: _641  and  _642
REMARK  262  A    between atoms: _641  and  _644
REMARK  263  A    between atoms: _644  and  _645
REMARK  264  A    between atoms: _645  and  _646
REMARK  265  A    between atoms: _646  and  _647
REMARK  266  A    between atoms: _647  and  _648
REMARK  267  A    between atoms: _652  and  _654
REMARK  268  A    between atoms: _654  and  _655
REMARK  269  A    between atoms: _654  and  _657
REMARK  270  A    between atoms: _657  and  _658
REMARK  271  A    between atoms: _668  and  _670
REMARK  272  A    between atoms: _670  and  _671
REMARK  273  A    between atoms: _674  and  _676
REMARK  274  A    between atoms: _676  and  _677
REMARK  275  A    between atoms: _679  and  _681
REMARK  276  A    between atoms: _681  and  _682
REMARK  277  A    between atoms: _685  and  _687
REMARK  278  A    between atoms: _687  and  _688
REMARK  279  A    between atoms: _691  and  _693
REMARK  280  A    between atoms: _693  and  _694
REMARK  281  A    between atoms: _693  and  _696
REMARK  282  A    between atoms: _696  and  _697
REMARK  283  A    between atoms: _697  and  _698
REMARK  284  A    between atoms: _701  and  _703
REMARK  285  A    between atoms: _703  and  _704
REMARK  286  A    between atoms: _703  and  _706
REMARK  287  A    between atoms: _706  and  _707
REMARK  288  A    between atoms: _712  and  _713
REMARK  289  A    between atoms: _715  and  _717
REMARK  290  A    between atoms: _717  and  _718
REMARK  291  A    between atoms: _717  and  _720
REMARK  292  A    between atoms: _720  and  _721
REMARK  293  A    between atoms: _726  and  _727
REMARK  294  A    between atoms: _729  and  _731
REMARK  295  A    between atoms: _731  and  _732
REMARK  296  A    between atoms: _731  and  _734
REMARK  297  A    between atoms: _734  and  _735
REMARK  298  A    between atoms: _735  and  _736
REMARK  299  A    between atoms: _736  and  _737
REMARK  300  A    between atoms: _746  and  _748
REMARK  301  A    between atoms: _748  and  _749
REMARK  302  A    between atoms: _752  and  _754
REMARK  303  A    between atoms: _754  and  _755
REMARK  304  A    between atoms: _754  and  _757
REMARK  305  A    between atoms: _757  and  _758
REMARK  306  A    between atoms: _763  and  _764
REMARK  307  A    between atoms: _766  and  _768
REMARK  308  A    between atoms: _768  and  _769
REMARK  309  A    between atoms: _768  and  _771
REMARK  310  A    between atoms: _771  and  _772
REMARK  311  A    between atoms: _775  and  _777
REMARK  312  A    between atoms: _777  and  _778
REMARK  313  A    between atoms: _777  and  _780
REMARK  314  A    between atoms: _780  and  _781
REMARK  315  A    between atoms: _784  and  _786
REMARK  316  A    between atoms: _786  and  _787
REMARK  317  A    between atoms: _786  and  _789
REMARK  318  A    between atoms: _789  and  _790
REMARK  319  A    between atoms: _791  and  _793
REMARK  320  A    between atoms: _793  and  _794
REMARK  321  A    between atoms: _793  and  _796
REMARK  322  A    between atoms: _799  and  _801
REMARK  323  A    between atoms: _801  and  _802
REMARK  324  A    between atoms: _801  and  _804
REMARK  325  A    between atoms: _804  and  _805
REMARK  326  A    between atoms: _805  and  _806
REMARK  327  A    between atoms: _809  and  _811
REMARK  328  A    between atoms: _811  and  _812
REMARK  329  A    between atoms: _811  and  _814
REMARK  330  A    between atoms: _814  and  _815
REMARK  331  A    between atoms: _825  and  _827
REMARK  332  A    between atoms: _827  and  _828
REMARK  333  A    between atoms: _827  and  _830
REMARK  334  A    between atoms: _830  and  _831
REMARK  335  A    between atoms: _834  and  _836
REMARK  336  A    between atoms: _836  and  _837
REMARK  337  A    between atoms: _836  and  _839
REMARK  338  A    between atoms: _839  and  _840
REMARK  339  A    between atoms: _840  and  _841
REMARK  340  A    between atoms: _841  and  _842
REMARK  341  A    between atoms: _851  and  _853
REMARK  342  A    between atoms: _853  and  _854
REMARK  343  A    between atoms: _853  and  _856
REMARK  344  A    between atoms: _856  and  _857
REMARK  345  A    between atoms: _862  and  _863
REMARK                            x       y       z     vdW  Elec       q    Type
REMARK                         _______ _______ _______ _____ _____    ______ ____
ROOT
ATOM      1  CA  TYR A   7      49.978  60.509  -8.222  0.00  0.00    +0.153 C 
ENDROOT
BRANCH   1   4
ATOM      2  C   TYR A   6      49.803  62.891  -8.279  0.00  0.00    +0.241 C 
ATOM      3  O   TYR A   6      50.143  62.950  -7.098  0.00  0.00    -0.273 OA
ATOM      4  N   TYR A   7      49.690  61.744  -8.930  0.00  0.00    -0.297 N 
ATOM      5  H   TYR A   7      49.401  61.727  -9.929  0.00  0.00    +0.150 HD
BRANCH   2   6
ATOM      6  CA  TYR A   6      49.497  64.153  -9.075  0.00  0.00    +0.153 C 
BRANCH   6   9
ATOM      7  C   GLU A   5      51.388  64.061 -10.579  0.00  0.00    +0.241 C 
ATOM      8  O   GLU A   5      52.175  64.106  -9.631  0.00  0.00    -0.273 OA
ATOM      9  N   TYR A   6      50.071  64.079 -10.415  0.00  0.00    -0.297 N 
ATOM     10  H   TYR A   6      49.445  64.040 -11.245  0.00  0.00    +0.150 HD
BRANCH   7  11
ATOM     11  CA  GLU A   5      51.897  63.977 -12.012  0.00  0.00    +0.149 C 
BRANCH  11  14
ATOM     12  C   ALA A   4      51.045  61.752 -12.411  0.00  0.00    +0.241 C 
ATOM     13  O   ALA A   4      51.674  61.300 -11.449  0.00  0.00    -0.273 OA
ATOM     14  N   GLU A   5      51.086  63.035 -12.763  0.00  0.00    -0.297 N 
ATOM     15  H   GLU A   5      50.534  63.365 -13.580  0.00  0.00    +0.150 HD
BRANCH  12  16
ATOM     16  CA  ALA A   4      50.162  60.870 -13.274  0.00  0.00    +0.149 C 
ATOM     17  CB  ALA A   4      50.879  60.543 -14.573  0.00  0.00    +0.031 C 
BRANCH  16  20
ATOM     18  C   ALA A   3      48.035  61.835 -12.584  0.00  0.00    +0.241 C 
ATOM     19  O   ALA A   3      48.260  61.568 -11.401  0.00  0.00    -0.273 OA
ATOM     20  N   ALA A   4      48.890  61.542 -13.555  0.00  0.00    -0.297 N 
ATOM     21  H   ALA A   4      48.653  61.794 -14.536  0.00  0.00    +0.150 HD
BRANCH  18  22
ATOM     22  CA  ALA A   3      46.731  62.527 -12.993  0.00  0.00    +0.149 C 
ATOM     23  CB  ALA A   3      45.699  61.484 -13.428  0.00  0.00    +0.031 C 
BRANCH  22  26
ATOM     24  C   GLY A   2      47.712  64.567 -13.926  0.00  0.00    +0.243 C 
ATOM     25  O   GLY A   2      48.446  64.710 -12.949  0.00  0.00    -0.273 OA
ATOM     26  N   ALA A   3      46.873  63.541 -14.045  0.00  0.00    -0.297 N 
ATOM     27  H   ALA A   3      46.301  63.455 -14.909  0.00  0.00    +0.150 HD
BRANCH  24  28
ATOM     28  CA  GLY A   2      47.738  65.563 -15.085  0.00  0.00    +0.176 C 
BRANCH  28  31
ATOM     29  C   ALA A   1      45.428  66.286 -15.217  0.00  0.00    +0.238 C 
ATOM     30  O   ALA A   1      45.503  66.827 -14.121  0.00  0.00    -0.274 OA
ATOM     31  N   GLY A   2      46.458  65.652 -15.777  0.00  0.00    -0.296 N 
ATOM     32  H   GLY A   2      46.348  65.217 -16.715  0.00  0.00    +0.150 HD
BRANCH  29  33
ATOM     33  CA  ALA A   1      44.116  66.323 -15.996  0.00  0.00    +0.145 C 
ATOM     34  CB  ALA A   1      43.033  65.543 -15.249  0.00  0.00    +0.028 C 
BRANCH  33  35
ATOM     35  N   ALA A   1      44.225  65.830 -17.358  0.00  0.00    -0.238 NA
ATOM     36  H   ALA A   1      44.126  64.813 -17.554  0.00  0.00    +0.142 HD
ENDBRANCH  33  35
ENDBRANCH  29  33
ENDBRANCH  28  31
ENDBRANCH  24  28
ENDBRANCH  22  26
ENDBRANCH  18  22
ENDBRANCH  16  20
ENDBRANCH  12  16
ENDBRANCH  11  14
BRANCH  11  37
ATOM     37  CB  GLU A   5      51.848  65.356 -12.689  0.00  0.00    +0.041 C 
BRANCH  37  38
ATOM     38  CG  GLU A   5      52.667  66.405 -11.983  0.00  0.00    +0.116 C 
BRANCH  38  39
ATOM     39  CD  GLU A   5      52.792  67.678 -12.797  0.00  0.00    +0.365 C 
ATOM     40  OE2 GLU A   5      53.937  68.119 -13.031  0.00  0.00    -0.246 OA
ATOM     41  OE1 GLU A   5      51.745  68.231 -13.199  0.00  0.00    -0.246 OA
ENDBRANCH  38  39
ENDBRANCH  37  38
ENDBRANCH  11  37
ENDBRANCH   7  11
ENDBRANCH   6   9
BRANCH   6  42
ATOM     42  CB  TYR A   6      47.985  64.372  -9.136  0.00  0.00    +0.055 C 
BRANCH  42  43
ATOM     43  CG  TYR A   6      47.620  65.826  -9.352  0.00  0.00    -0.020 A 
ATOM     44  CD2 TYR A   6      47.716  66.744  -8.308  0.00  0.00    -0.001 A 
ATOM     45  CE2 TYR A   6      47.449  68.101  -8.511  0.00  0.00    +0.036 A 
ATOM     46  CZ  TYR A   6      47.080  68.553  -9.773  0.00  0.00    +0.134 A 
ATOM     47  CE1 TYR A   6      46.971  67.656 -10.829  0.00  0.00    +0.036 A 
ATOM     48  CD1 TYR A   6      47.241  66.295 -10.611  0.00  0.00    -0.001 A 
BRANCH  46  49
ATOM     49  OH  TYR A   6      46.838  69.901  -9.974  0.00  0.00    -0.506 OA
ATOM     50  HH  TYR A   6      46.588  70.053 -10.920  0.00  0.00    +0.292 HD
ENDBRANCH  46  49
ENDBRANCH  42  43
ENDBRANCH   6  42
ENDBRANCH   2   6
ENDBRANCH   1   4
BRANCH   1  51
ATOM     51  C   TYR A   7      51.457  60.456  -7.861  0.00  0.00    +0.241 C 
ATOM     52  O   TYR A   7      51.812  60.076  -6.754  0.00  0.00    -0.273 OA
ATOM     53  N   ARG A   8      52.322  60.863  -8.780  0.00  0.00    -0.297 N 
ATOM     54  H   ARG A   8      51.978  61.197  -9.703  0.00  0.00    +0.150 HD
BRANCH  53  55
ATOM     55  CA  ARG A   8      53.749  60.845  -8.503  0.00  0.00    +0.149 C 
BRANCH  55  56
ATOM     56  C   ARG A   8      54.112  61.738  -7.315  0.00  0.00    +0.241 C 
ATOM     57  O   ARG A   8      55.021  61.420  -6.535  0.00  0.00    -0.273 OA
ATOM     58  N   ALA A   9      53.403  62.856  -7.162  0.00  0.00    -0.297 N 
ATOM     59  H   ALA A   9      52.654  63.091  -7.845  0.00  0.00    +0.150 HD
BRANCH  58  60
ATOM     60  CA  ALA A   9      53.671  63.755  -6.040  0.00  0.00    +0.149 C 
ATOM     61  CB  ALA A   9      52.898  65.089  -6.217  0.00  0.00    +0.031 C 
BRANCH  60  62
ATOM     62  C   ALA A   9      53.234  63.045  -4.749  0.00  0.00    +0.241 C 
ATOM     63  O   ALA A   9      53.859  63.193  -3.697  0.00  0.00    -0.273 OA
ATOM     64  N   TYR A  10      52.151  62.279  -4.833  0.00  0.00    -0.297 N 
ATOM     65  H   TYR A  10      51.638  62.210  -5.735  0.00  0.00    +0.150 HD
BRANCH  64  66
ATOM     66  CA  TYR A  10      51.673  61.533  -3.673  0.00  0.00    +0.153 C 
BRANCH  66  67
ATOM     67  C   TYR A  10      52.735  60.482  -3.297  0.00  0.00    +0.241 C 
ATOM     68  O   TYR A  10      53.094  60.329  -2.130  0.00  0.00    -0.273 OA
ATOM     69  N   LEU A  11      53.237  59.765  -4.296  0.00  0.00    -0.298 N 
ATOM     70  H   LEU A  11      52.902  59.933  -5.266  0.00  0.00    +0.150 HD
BRANCH  69  71
ATOM     71  CA  LEU A  11      54.249  58.747  -4.053  0.00  0.00    +0.137 C 
BRANCH  71  72
ATOM     72  C   LEU A  11      55.499  59.309  -3.383  0.00  0.00    +0.227 C 
ATOM     73  O   LEU A  11      55.918  58.842  -2.324  0.00  0.00    -0.286 OA
ENDBRANCH  71  72
BRANCH  71  74
ATOM     74  CB  LEU A  11      54.649  58.072  -5.372  0.00  0.00    +0.028 C 
BRANCH  74  75
ATOM     75  CG  LEU A  11      53.580  57.214  -6.066  0.00  0.00    +0.002 C 
ATOM     76  CD2 LEU A  11      53.231  55.991  -5.191  0.00  0.00    +0.000 C 
ATOM     77  CD1 LEU A  11      54.088  56.774  -7.436  0.00  0.00    +0.000 C 
ENDBRANCH  74  75
ENDBRANCH  71  74
ENDBRANCH  69  71
ENDBRANCH  66  67
BRANCH  66  78
ATOM     78  CB  TYR A  10      50.349  60.836  -4.002  0.00  0.00    +0.055 C 
BRANCH  78  79
ATOM     79  CG  TYR A  10      50.025  59.678  -3.079  0.00  0.00    -0.020 A 
ATOM     80  CD2 TYR A  10      49.505  59.895  -1.799  0.00  0.00    -0.001 A 
ATOM     81  CE2 TYR A  10      49.266  58.832  -0.933  0.00  0.00    +0.036 A 
ATOM     82  CZ  TYR A  10      49.553  57.523  -1.351  0.00  0.00    +0.134 A 
ATOM     83  CE1 TYR A  10      50.062  57.288  -2.613  0.00  0.00    +0.036 A 
ATOM     84  CD1 TYR A  10      50.295  58.358  -3.472  0.00  0.00    -0.001 A 
BRANCH  82  85
ATOM     85  OH  TYR A  10      49.348  56.462  -0.493  0.00  0.00    -0.506 OA
ATOM     86  HH  TYR A  10      48.982  56.798   0.364  0.00  0.00    +0.292 HD
ENDBRANCH  82  85
ENDBRANCH  78  79
ENDBRANCH  66  78
ENDBRANCH  64  66
ENDBRANCH  60  62
ENDBRANCH  58  60
ENDBRANCH  55  56
BRANCH  55  87
ATOM     87  CB  ARG A   8      54.536  61.258  -9.749  0.00  0.00    +0.033 C 
BRANCH  87  88
ATOM     88  CG  ARG A   8      56.036  61.214  -9.545  0.00  0.00    +0.045 C 
BRANCH  88  89
ATOM     89  CD  ARG A   8      56.793  61.623 -10.793  0.00  0.00    +0.174 C 
BRANCH  89  90
ATOM     90  NE  ARG A   8      58.228  61.448 -10.611  0.00  0.00    -0.265 N 
ATOM     91  HE  ARG A   8      58.563  61.108  -9.687  0.00  0.00    +0.259 HD
ATOM     92  CZ  ARG A   8      59.136  61.694 -11.548  0.00  0.00    +0.342 C 
ATOM     93  NH2 ARG A   8      60.423  61.486 -11.294  0.00  0.00    -0.292 N 
ATOM     94 HH21 ARG A   8      60.718  61.131 -10.362  0.00  0.00    +0.255 HD
ATOM     95 HH22 ARG A   8      61.135  61.678 -12.027  0.00  0.00    +0.255 HD
ATOM     96  NH1 ARG A   8      58.760  62.134 -12.743  0.00  0.00    -0.292 N 
ATOM     97 HH11 ARG A   8      57.752  62.287 -12.947  0.00  0.00    +0.255 HD
ATOM     98 HH12 ARG A   8      59.474  62.326 -13.475  0.00  0.00    +0.255 HD
ENDBRANCH  89  90
ENDBRANCH  88  89
ENDBRANCH  87  88
ENDBRANCH  55  87
ENDBRANCH  53  55
ENDBRANCH   1  51
BRANCH   1  99
ATOM     99  CB  TYR A   7      49.590  59.295  -9.061  0.00  0.00    +0.055 C 
BRANCH  99 100
ATOM    100  CG  TYR A   7      49.645  58.020  -8.253  0.00  0.00    -0.020 A 
ATOM    101  CD2 TYR A   7      48.829  57.847  -7.134  0.00  0.00    -0.001 A 
ATOM    102  CE2 TYR A   7      48.917  56.684  -6.345  0.00  0.00    +0.036 A 
ATOM    103  CZ  TYR A   7      49.831  55.698  -6.691  0.00  0.00    +0.134 A 
ATOM    104  CE1 TYR A   7      50.641  55.854  -7.800  0.00  0.00    +0.036 A 
ATOM    105  CD1 TYR A   7      50.546  57.011  -8.575  0.00  0.00    -0.001 A 
BRANCH 103 106
ATOM    106  OH  TYR A   7      49.963  54.565  -5.914  0.00  0.00    -0.506 OA
ATOM    107  HH  TYR A   7      49.781  53.764  -6.467  0.00  0.00    +0.292 HD
ENDBRANCH 103 106
ENDBRANCH  99 100
ENDBRANCH   1  99
TORSDOF 40
REMARK  Name = ../refined-set-2016/1fzj/1fzj_pocket.pdb
REMARK  345 active torsions:
REMARK  status: ('A' for Active; 'I' for Inactive)
REMARK    1  A    between atoms: _1  and  _3
REMARK    2  A    between atoms: _3  and  _4
REMARK    3  A    between atoms: _3  and  _6
REMARK    4  A    between atoms: _6  and  _7
REMARK    5  A    between atoms: _10  and  _12
REMARK    6  A    between atoms: _12  and  _13
REMARK    7  A    between atoms: _12  and  _15
REMARK    8  A    between atoms: _15  and  _16
REMARK    9  A    between atoms: _16  and  _17
REMARK   10  A    between atoms: _17  and  _18
REMARK   11  A    between atoms: _27  and  _29
REMARK   12  A    between atoms: _29  and  _30
REMARK   13  A    between atoms: _29  and  _32
REMARK   14  A    between atoms: _32  and  _33
REMARK   15  A    between atoms: _38  and  _39
REMARK   16  A    between atoms: _41  and  _43
REMARK   17  A    between atoms: _43  and  _44
REMARK   18  A    between atoms: _43  and  _46
REMARK   19  A    between atoms: _46  and  _47
REMARK   20  A    between atoms: _53  and  _55
REMARK   21  A    between atoms: _55  and  _56
REMARK   22  A    between atoms: _55  and  _58
REMARK   23  A    between atoms: _61  and  _63
REMARK   24  A    between atoms: _63  and  _64
REMARK   25  A    between atoms: _63  and  _66
REMARK   26  A    between atoms: _66  and  _67
REMARK   27  A    between atoms: _70  and  _72
REMARK   28  A    between atoms: _72  and  _73
REMARK   29  A    between atoms: _72  and  _75
REMARK   30  A    between atoms: _75  and  _76
REMARK   31  A    between atoms: _81  and  _82
REMARK   32  A    between atoms: _84  and  _86
REMARK   33  A    between atoms: _86  and  _87
REMARK   34  A    between atoms: _86  and  _89
REMARK   35  A    between atoms: _89  and  _90
REMARK   36  A    between atoms: _90  and  _91
REMARK   37  A    between atoms: _93  and  _95
REMARK   38  A    between atoms: _95  and  _96
REMARK   39  A    between atoms: _95  and  _98
REMARK   40  A    between atoms: _98  and  _99
REMARK   41  A    between atoms: _99  and  _100
REMARK   42  A    between atoms: _103  and  _105
REMARK   43  A    between atoms: _105  and  _106
REMARK   44  A    between atoms: _105  and  _108
REMARK   45  A    between atoms: _111  and  _113
REMARK   46  A    between atoms: _113  and  _114
REMARK   47  A    between atoms: _113  and  _116
REMARK   48  A    between atoms: _119  and  _121
REMARK   49  A    between atoms: _121  and  _122
REMARK   50  A    between atoms: _121  and  _124
REMARK   51  A    between atoms: _124  and  _125
REMARK   52  A    between atoms: _131  and  _133
REMARK   53  A    between atoms: _133  and  _134
REMARK   54  A    between atoms: _133  and  _136
REMARK   55  A    between atoms: _139  and  _141
REMARK   56  A    between atoms: _141  and  _142
REMARK   57  A    between atoms: _141  and  _144
REMARK   58  A    between atoms: _144  and  _145
REMARK   59  A    between atoms: _150  and  _151
REMARK   60  A    between atoms: _153  and  _155
REMARK   61  A    between atoms: _155  and  _156
REMARK   62  A    between atoms: _155  and  _158
REMARK   63  A    between atoms: _158  and  _159
REMARK   64  A    between atoms: _159  and  _160
REMARK   65  A    between atoms: _162  and  _164
REMARK   66  A    between atoms: _164  and  _165
REMARK   67  A    between atoms: _164  and  _167
REMARK   68  A    between atoms: _167  and  _168
REMARK   69  A    between atoms: _168  and  _169
REMARK   70  A    between atoms: _172  and  _174
REMARK   71  A    between atoms: _174  and  _175
REMARK   72  A    between atoms: _174  and  _177
REMARK   73  A    between atoms: _177  and  _178
REMARK   74  A    between atoms: _178  and  _179
REMARK   75  A    between atoms: _182  and  _184
REMARK   76  A    between atoms: _184  and  _185
REMARK   77  A    between atoms: _184  and  _187
REMARK   78  A    between atoms: _187  and  _188
REMARK   79  A    between atoms: _193  and  _194
REMARK   80  A    between atoms: _196  and  _198
REMARK   81  A    between atoms: _198  and  _199
REMARK   82  A    between atoms: _198  and  _201
REMARK   83  A    between atoms: _201  and  _202
REMARK   84  A    between atoms: _212  and  _214
REMARK   85  A    between atoms: _214  and  _215
REMARK   86  A    between atoms: _214  and  _217
REMARK   87  A    between atoms: _217  and  _218
REMARK   88  A    between atoms: _218  and  _219
REMARK   89  A    between atoms: _222  and  _224
REMARK   90  A    between atoms: _224  and  _225
REMARK   91  A    between atoms: _224  and  _227
REMARK   92  A    between atoms: _227  and  _228
REMARK   93  A    between atoms: _228  and  _229
REMARK   94  A    between atoms: _229  and  _230
REMARK   95  A    between atoms: _239  and  _241
REMARK   96  A    between atoms: _241  and  _242
REMARK   97  A    between atoms: _241  and  _244
REMARK   98  A    between atoms: _244  and  _245
REMARK   99  A    between atoms: _245  and  _246
REMARK  100  A    between atoms: _249  and  _251
REMARK  101  A    between atoms: _251  and  _252
REMARK  102  A    between atoms: _251  and  _254
REMARK  103  A    between atoms: _254  and  _255
REMARK  104  A    between atoms: _258  and  _260
REMARK  105  A    between atoms: _260  and  _261
REMARK  106  A    between atoms: _260  and  _263
REMARK  107  A    between atoms: _263  and  _264
REMARK  108  A    between atoms: _264  and  _265
REMARK  109  A    between atoms: _270  and  _272
REMARK  110  A    between atoms: _272  and  _273
REMARK  111  A    between atoms: _272  and  _275
REMARK  112  A    between atoms: _275  and  _276
REMARK  113  A    between atoms: _276  and  _277
REMARK  114  A    between atoms: _277  and  _278
REMARK  115  A    between atoms: _278  and  _279
REMARK  116  A    between atoms: _283  and  _285
REMARK  117  A    between atoms: _285  and  _286
REMARK  118  A    between atoms: _289  and  _291
REMARK  119  A    between atoms: _291  and  _292
REMARK  120  A    between atoms: _294  and  _296
REMARK  121  A    between atoms: _296  and  _297
REMARK  122  A    between atoms: _296  and  _299
REMARK  123  A    between atoms: _299  and  _300
REMARK  124  A    between atoms: _305  and  _307
REMARK  125  A    between atoms: _307  and  _308
REMARK  126  A    between atoms: _307  and  _310
REMARK  127  A    between atoms: _310  and  _311
REMARK  128  A    between atoms: _311  and  _312
REMARK  129  A    between atoms: _315  and  _317
REMARK  130  A    between atoms: _317  and  _318
REMARK  131  A    between atoms: _317  and  _320
REMARK  132  A    between atoms: _320  and  _321
REMARK  133  A    between atoms: _323  and  _325
REMARK  134  A    between atoms: _325  and  _326
REMARK  135  A    between atoms: _325  and  _328
REMARK  136  A    between atoms: _328  and  _329
REMARK  137  A    between atoms: _335  and  _337
REMARK  138  A    between atoms: _337  and  _338
REMARK  139  A    between atoms: _337  and  _340
REMARK  140  A    between atoms: _343  and  _345
REMARK  141  A    between atoms: _345  and  _346
REMARK  142  A    between atoms: _345  and  _348
REMARK  143  A    between atoms: _348  and  _349
REMARK  144  A    between atoms: _352  and  _354
REMARK  145  A    between atoms: _354  and  _355
REMARK  146  A    between atoms: _354  and  _357
REMARK  147  A    between atoms: _357  and  _358
REMARK  148  A    between atoms: _361  and  _363
REMARK  149  A    between atoms: _363  and  _364
REMARK  150  A    between atoms: _363  and  _366
REMARK  151  A    between atoms: _366  and  _367
REMARK  152  A    between atoms: _370  and  _372
REMARK  153  A    between atoms: _372  and  _373
REMARK  154  A    between atoms: _372  and  _375
REMARK  155  A    between atoms: _375  and  _376
REMARK  156  A    between atoms: _379  and  _381
REMARK  157  A    between atoms: _381  and  _382
REMARK  158  A    between atoms: _381  and  _384
REMARK  159  A    between atoms: _384  and  _385
REMARK  160  A    between atoms: _390  and  _391
REMARK  161  A    between atoms: _393  and  _395
REMARK  162  A    between atoms: _395  and  _396
REMARK  163  A    between atoms: _395  and  _398
REMARK  164  A    between atoms: _398  and  _399
REMARK  165  A    between atoms: _404  and  _405
REMARK  166  A    between atoms: _407  and  _409
REMARK  167  A    between atoms: _409  and  _410
REMARK  168  A    between atoms: _409  and  _412
REMARK  169  A    between atoms: _412  and  _413
REMARK  170  A    between atoms: _416  and  _418
REMARK  171  A    between atoms: _418  and  _419
REMARK  172  A    between atoms: _418  and  _421
REMARK  173  A    between atoms: _421  and  _422
REMARK  174  A    between atoms: _422  and  _423
REMARK  175  A    between atoms: _428  and  _430
REMARK  176  A    between atoms: _430  and  _431
REMARK  177  A    between atoms: _430  and  _433
REMARK  178  A    between atoms: _436  and  _438
REMARK  179  A    between atoms: _438  and  _439
REMARK  180  A    between atoms: _438  and  _441
REMARK  181  A    between atoms: _441  and  _442
REMARK  182  A    between atoms: _445  and  _447
REMARK  183  A    between atoms: _447  and  _448
REMARK  184  A    between atoms: _447  and  _450
REMARK  185  A    between atoms: _450  and  _451
REMARK  186  A    between atoms: _453  and  _455
REMARK  187  A    between atoms: _455  and  _456
REMARK  188  A    between atoms: _458  and  _460
REMARK  189  A    between atoms: _460  and  _461
REMARK  190  A    between atoms: _460  and  _463
REMARK  191  A    between atoms: _463  and  _464
REMARK  192  A    between atoms: _464  and  _790
REMARK  193  A    between atoms: _465  and  _467
REMARK  194  A    between atoms: _467  and  _468
REMARK  195  A    between atoms: _467  and  _470
REMARK  196  A    between atoms: _470  and  _471
REMARK  197  A    between atoms: _476  and  _477
REMARK  198  A    between atoms: _479  and  _481
REMARK  199  A    between atoms: _481  and  _482
REMARK  200  A    between atoms: _481  and  _484
REMARK  201  A    between atoms: _484  and  _485
REMARK  202  A    between atoms: _485  and  _486
REMARK  203  A    between atoms: _491  and  _493
REMARK  204  A    between atoms: _493  and  _494
REMARK  205  A    between atoms: _493  and  _496
REMARK  206  A    between atoms: _496  and  _497
REMARK  207  A    between atoms: _497  and  _498
REMARK  208  A    between atoms: _503  and  _505
REMARK  209  A    between atoms: _505  and  _506
REMARK  210  A    between atoms: _505  and  _508
REMARK  211  A    between atoms: _508  and  _509
REMARK  212  A    between atoms: _514  and  _515
REMARK  213  A    between atoms: _517  and  _519
REMARK  214  A    between atoms: _519  and  _520
REMARK  215  A    between atoms: _523  and  _525
REMARK  216  A    between atoms: _525  and  _526
REMARK  217  A    between atoms: _525  and  _528
REMARK  218  A    between atoms: _528  and  _529
REMARK  219  A    between atoms: _534  and  _535
REMARK  220  A    between atoms: _537  and  _539
REMARK  221  A    between atoms: _539  and  _540
REMARK  222  A    between atoms: _539  and  _542
REMARK  223  A    between atoms: _542  and  _543
REMARK  224  A    between atoms: _548  and  _549
REMARK  225  A    between atoms: _551  and  _553
REMARK  226  A    between atoms: _553  and  _554
REMARK  227  A    between atoms: _553  and  _556
REMARK  228  A    between atoms: _556  and  _557
REMARK  229  A    between atoms: _560  and  _562
REMARK  230  A    between atoms: _562  and  _563
REMARK  231  A    between atoms: _562  and  _565
REMARK  232  A    between atoms: _565  and  _566
REMARK  233  A    between atoms: _576  and  _578
REMARK  234  A    between atoms: _578  and  _579
REMARK  235  A    between atoms: _582  and  _584
REMARK  236  A    between atoms: _584  and  _585
REMARK  237  A    between atoms: _588  and  _590
REMARK  238  A    between atoms: _590  and  _591
REMARK  239  A    between atoms: _590  and  _593
REMARK  240  A    between atoms: _593  and  _594
REMARK  241  A    between atoms: _597  and  _599
REMARK  242  A    between atoms: _599  and  _600
REMARK  243  A    between atoms: _599  and  _602
REMARK  244  A    between atoms: _602  and  _603
REMARK  245  A    between atoms: _606  and  _608
REMARK  246  A    between atoms: _608  and  _609
REMARK  247  A    between atoms: _608  and  _611
REMARK  248  A    between atoms: _611  and  _612
REMARK  249  A    between atoms: _615  and  _617
REMARK  250  A    between atoms: _617  and  _618
REMARK  251  A    between atoms: _617  and  _620
REMARK  252  A    between atoms: _620  and  _621
REMARK  253  A    between atoms: _621  and  _622
REMARK  254  A    between atoms: _622  and  _623
REMARK  255  A    between atoms: _623  and  _624
REMARK  256  A    between atoms: _628  and  _630
REMARK  257  A    between atoms: _630  and  _631
REMARK  258  A    between atoms: _630  and  _633
REMARK  259  A    between atoms: _633  and  _634
REMARK  260  A    between atoms: _639  and  _641
REMARK  261  A    between atoms: _641  and  _642
REMARK  262  A    between atoms: _641  and  _644
REMARK  263  A    between atoms: _644  and  _645
REMARK  264  A    between atoms: _645  and  _646
REMARK  265  A    between atoms: _646  and  _647
REMARK  266  A    between atoms: _647  and  _648
REMARK  267  A    between atoms: _652  and  _654
REMARK  268  A    between atoms: _654  and  _655
REMARK  269  A    between atoms: _654  and  _657
REMARK  270  A    between atoms: _657  and  _658
REMARK  271  A    between atoms: _668  and  _670
REMARK  272  A    between atoms: _670  and  _671
REMARK  273  A    between atoms: _674  and  _676
REMARK  274  A    between atoms: _676  and  _677
REMARK  275  A    between atoms: _679  and  _681
REMARK  276  A    between atoms: _681  and  _682
REMARK  277  A    between atoms: _685  and  _687
REMARK  278  A    between atoms: _687  and  _688
REMARK  279  A    between atoms: _691  and  _693
REMARK  280  A    between atoms: _693  and  _694
REMARK  281  A    between atoms: _693  and  _696
REMARK  282  A    between atoms: _696  and  _697
REMARK  283  A    between atoms: _697  and  _698
REMARK  284  A    between atoms: _701  and  _703
REMARK  285  A    between atoms: _703  and  _704
REMARK  286  A    between atoms: _703  and  _706
REMARK  287  A    between atoms: _706  and  _707
REMARK  288  A    between atoms: _712  and  _713
REMARK  289  A    between atoms: _715  and  _717
REMARK  290  A    between atoms: _717  and  _718
REMARK  291  A    between atoms: _717  and  _720
REMARK  292  A    between atoms: _720  and  _721
REMARK  293  A    between atoms: _726  and  _727
REMARK  294  A    between atoms: _729  and  _731
REMARK  295  A    between atoms: _731  and  _732
REMARK  296  A    between atoms: _731  and  _734
REMARK  297  A    between atoms: _734  and  _735
REMARK  298  A    between atoms: _735  and  _736
REMARK  299  A    between atoms: _736  and  _737
REMARK  300  A    between atoms: _746  and  _748
REMARK  301  A    between atoms: _748  and  _749
REMARK  302  A    between atoms: _752  and  _754
REMARK  303  A    between atoms: _754  and  _755
REMARK  304  A    between atoms: _754  and  _757
REMARK  305  A    between atoms: _757  and  _758
REMARK  306  A    between atoms: _763  and  _764
REMARK  307  A    between atoms: _766  and  _768
REMARK  308  A    between atoms: _768  and  _769
REMARK  309  A    between atoms: _768  and  _771
REMARK  310  A    between atoms: _771  and  _772
REMARK  311  A    between atoms: _775  and  _777
REMARK  312  A    between atoms: _777  and  _778
REMARK  313  A    between atoms: _777  and  _780
REMARK  314  A    between atoms: _780  and  _781
REMARK  315  A    between atoms: _784  and  _786
REMARK  316  A    between atoms: _786  and  _787
REMARK  317  A    between atoms: _786  and  _789
REMARK  318  A    between atoms: _789  and  _790
REMARK  319  A    between atoms: _791  and  _793
REMARK  320  A    between atoms: _793  and  _794
REMARK  321  A    between atoms: _793  and  _796
REMARK  322  A    between atoms: _799  and  _801
REMARK  323  A    between atoms: _801  and  _802
REMARK  324  A    between atoms: _801  and  _804
REMARK  325  A    between atoms: _804  and  _805
REMARK  326  A    between atoms: _805  and  _806
REMARK  327  A    between atoms: _809  and  _811
REMARK  328  A    between atoms: _811  and  _812
REMARK  329  A    between atoms: _811  and  _814
REMARK  330  A    between atoms: _814  and  _815
REMARK  331  A    between atoms: _825  and  _827
REMARK  332  A    between atoms: _827  and  _828
REMARK  333  A    between atoms: _827  and  _830
REMARK  334  A    between atoms: _830  and  _831
REMARK  335  A    between atoms: _834  and  _836
REMARK  336  A    between atoms: _836  and  _837
REMARK  337  A    between atoms: _836  and  _839
REMARK  338  A    between atoms: _839  and  _840
REMARK  339  A    between atoms: _840  and  _841
REMARK  340  A    between atoms: _841  and  _842
REMARK  341  A    between atoms: _851  and  _853
REMARK  342  A    between atoms: _853  and  _854
REMARK  343  A    between atoms: _853  and  _856
REMARK  344  A    between atoms: _856  and  _857
REMARK  345  A    between atoms: _862  and  _863
REMARK                            x       y       z     vdW  Elec       q    Type
REMARK                         _______ _______ _______ _____ _____    ______ ____
ROOT
ATOM      1  C   ARG A   1      55.987  55.828  10.510  0.00  0.00    +0.238 C 
ATOM      2  O   ARG A   1      56.143  55.526  11.692  0.00  0.00    -0.274 OA
ATOM      3  N   TYR A   2      55.298  55.067   9.666  0.00  0.00    -0.298 N 
ATOM      4  H   TYR A   2      55.180  55.359   8.675  0.00  0.00    +0.150 HD
ENDROOT
BRANCH   1   5
ATOM      5  CA  ARG A   1      56.592  57.127   9.948  0.00  0.00    +0.145 C 
BRANCH   5   6
ATOM      6  N   ARG A   1      57.154  56.911   8.622  0.00  0.00    -0.238 NA
ATOM      7  H   ARG A   1      56.729  57.383   7.798  0.00  0.00    +0.142 HD
ENDBRANCH   5   6
BRANCH   5   8
ATOM      8  CB  ARG A   1      55.520  58.213   9.891  0.00  0.00    +0.030 C 
BRANCH   8   9
ATOM      9  CG  ARG A   1      54.790  58.469  11.198  0.00  0.00    +0.045 C 
BRANCH   9  10
ATOM     10  CD  ARG A   1      53.749  59.576  10.975  0.00  0.00    +0.174 C 
BRANCH  10  11
ATOM     11  NE  ARG A   1      52.791  59.713  12.072  0.00  0.00    -0.265 N 
ATOM     12  CZ  ARG A   1      53.025  60.360  13.208  0.00  0.00    +0.342 C 
ATOM     13  NH2 ARG A   1      52.076  60.434  14.132  0.00  0.00    -0.292 N 
ATOM     14 HH21 ARG A   1      52.256  60.940  15.023  0.00  0.00    +0.255 HD
ATOM     15 HH22 ARG A   1      51.152  59.986  13.966  0.00  0.00    +0.255 HD
ATOM     16  NH1 ARG A   1      54.197  60.947  13.422  0.00  0.00    -0.292 N 
ATOM     17 HH11 ARG A   1      54.371  61.451  14.315  0.00  0.00    +0.255 HD
ATOM     18 HH12 ARG A   1      54.941  60.902  12.697  0.00  0.00    +0.255 HD
ATOM     19  HE  ARG A   1      51.857  59.271  11.954  0.00  0.00    +0.259 HD
ENDBRANCH  10  11
ENDBRANCH   9  10
ENDBRANCH   8   9
ENDBRANCH   5   8
ENDBRANCH   1   5
BRANCH   3  20
ATOM     20  CA  TYR A   2      54.703  53.808  10.144  0.00  0.00    +0.141 C 
BRANCH  20  21
ATOM     21  C   TYR A   2      55.789  52.826  10.605  0.00  0.00    +0.227 C 
ATOM     22  O   TYR A   2      55.627  52.168  11.633  0.00  0.00    -0.286 OA
ENDBRANCH  20  21
BRANCH  20  23
ATOM     23  CB  TYR A   2      53.841  53.170   9.052  0.00  0.00    +0.054 C 
BRANCH  23  24
ATOM     24  CG  TYR A   2      52.659  54.011   8.605  0.00  0.00    -0.020 A 
ATOM     25  CD2 TYR A   2      51.909  54.748   9.527  0.00  0.00    -0.001 A 
ATOM     26  CE2 TYR A   2      50.824  55.525   9.118  0.00  0.00    +0.036 A 
ATOM     27  CZ  TYR A   2      50.477  55.564   7.776  0.00  0.00    +0.134 A 
ATOM     28  CE1 TYR A   2      51.208  54.831   6.835  0.00  0.00    +0.036 A 
ATOM     29  CD1 TYR A   2      52.290  54.067   7.257  0.00  0.00    -0.001 A 
BRANCH  27  30
ATOM     30  OH  TYR A   2      49.393  56.322   7.372  0.00  0.00    -0.506 OA
ATOM     31  HH  TYR A   2      48.995  56.772   8.159  0.00  0.00    +0.292 HD
ENDBRANCH  27  30
ENDBRANCH  23  24
ENDBRANCH  20  23
ENDBRANCH   3  20
TORSDOF 11
REMARK  Name = ../refined-set-2016/1fzj/1fzj_pocket.pdb
REMARK  345 active torsions:
REMARK  status: ('A' for Active; 'I' for Inactive)
REMARK    1  A    between atoms: _1  and  _3
REMARK    2  A    between atoms: _3  and  _4
REMARK    3  A    between atoms: _3  and  _6
REMARK    4  A    between atoms: _6  and  _7
REMARK    5  A    between atoms: _10  and  _12
REMARK    6  A    between atoms: _12  and  _13
REMARK    7  A    between atoms: _12  and  _15
REMARK    8  A    between atoms: _15  and  _16
REMARK    9  A    between atoms: _16  and  _17
REMARK   10  A    between atoms: _17  and  _18
REMARK   11  A    between atoms: _27  and  _29
REMARK   12  A    between atoms: _29  and  _30
REMARK   13  A    between atoms: _29  and  _32
REMARK   14  A    between atoms: _32  and  _33
REMARK   15  A    between atoms: _38  and  _39
REMARK   16  A    between atoms: _41  and  _43
REMARK   17  A    between atoms: _43  and  _44
REMARK   18  A    between atoms: _43  and  _46
REMARK   19  A    between atoms: _46  and  _47
REMARK   20  A    between atoms: _53  and  _55
REMARK   21  A    between atoms: _55  and  _56
REMARK   22  A    between atoms: _55  and  _58
REMARK   23  A    between atoms: _61  and  _63
REMARK   24  A    between atoms: _63  and  _64
REMARK   25  A    between atoms: _63  and  _66
REMARK   26  A    between atoms: _66  and  _67
REMARK   27  A    between atoms: _70  and  _72
REMARK   28  A    between atoms: _72  and  _73
REMARK   29  A    between atoms: _72  and  _75
REMARK   30  A    between atoms: _75  and  _76
REMARK   31  A    between atoms: _81  and  _82
REMARK   32  A    between atoms: _84  and  _86
REMARK   33  A    between atoms: _86  and  _87
REMARK   34  A    between atoms: _86  and  _89
REMARK   35  A    between atoms: _89  and  _90
REMARK   36  A    between atoms: _90  and  _91
REMARK   37  A    between atoms: _93  and  _95
REMARK   38  A    between atoms: _95  and  _96
REMARK   39  A    between atoms: _95  and  _98
REMARK   40  A    between atoms: _98  and  _99
REMARK   41  A    between atoms: _99  and  _100
REMARK   42  A    between atoms: _103  and  _105
REMARK   43  A    between atoms: _105  and  _106
REMARK   44  A    between atoms: _105  and  _108
REMARK   45  A    between atoms: _111  and  _113
REMARK   46  A    between atoms: _113  and  _114
REMARK   47  A    between atoms: _113  and  _116
REMARK   48  A    between atoms: _119  and  _121
REMARK   49  A    between atoms: _121  and  _122
REMARK   50  A    between atoms: _121  and  _124
REMARK   51  A    between atoms: _124  and  _125
REMARK   52  A    between atoms: _131  and  _133
REMARK   53  A    between atoms: _133  and  _134
REMARK   54  A    between atoms: _133  and  _136
REMARK   55  A    between atoms: _139  and  _141
REMARK   56  A    between atoms: _141  and  _142
REMARK   57  A    between atoms: _141  and  _144
REMARK   58  A    between atoms: _144  and  _145
REMARK   59  A    between atoms: _150  and  _151
REMARK   60  A    between atoms: _153  and  _155
REMARK   61  A    between atoms: _155  and  _156
REMARK   62  A    between atoms: _155  and  _158
REMARK   63  A    between atoms: _158  and  _159
REMARK   64  A    between atoms: _159  and  _160
REMARK   65  A    between atoms: _162  and  _164
REMARK   66  A    between atoms: _164  and  _165
REMARK   67  A    between atoms: _164  and  _167
REMARK   68  A    between atoms: _167  and  _168
REMARK   69  A    between atoms: _168  and  _169
REMARK   70  A    between atoms: _172  and  _174
REMARK   71  A    between atoms: _174  and  _175
REMARK   72  A    between atoms: _174  and  _177
REMARK   73  A    between atoms: _177  and  _178
REMARK   74  A    between atoms: _178  and  _179
REMARK   75  A    between atoms: _182  and  _184
REMARK   76  A    between atoms: _184  and  _185
REMARK   77  A    between atoms: _184  and  _187
REMARK   78  A    between atoms: _187  and  _188
REMARK   79  A    between atoms: _193  and  _194
REMARK   80  A    between atoms: _196  and  _198
REMARK   81  A    between atoms: _198  and  _199
REMARK   82  A    between atoms: _198  and  _201
REMARK   83  A    between atoms: _201  and  _202
REMARK   84  A    between atoms: _212  and  _214
REMARK   85  A    between atoms: _214  and  _215
REMARK   86  A    between atoms: _214  and  _217
REMARK   87  A    between atoms: _217  and  _218
REMARK   88  A    between atoms: _218  and  _219
REMARK   89  A    between atoms: _222  and  _224
REMARK   90  A    between atoms: _224  and  _225
REMARK   91  A    between atoms: _224  and  _227
REMARK   92  A    between atoms: _227  and  _228
REMARK   93  A    between atoms: _228  and  _229
REMARK   94  A    between atoms: _229  and  _230
REMARK   95  A    between atoms: _239  and  _241
REMARK   96  A    between atoms: _241  and  _242
REMARK   97  A    between atoms: _241  and  _244
REMARK   98  A    between atoms: _244  and  _245
REMARK   99  A    between atoms: _245  and  _246
REMARK  100  A    between atoms: _249  and  _251
REMARK  101  A    between atoms: _251  and  _252
REMARK  102  A    between atoms: _251  and  _254
REMARK  103  A    between atoms: _254  and  _255
REMARK  104  A    between atoms: _258  and  _260
REMARK  105  A    between atoms: _260  and  _261
REMARK  106  A    between atoms: _260  and  _263
REMARK  107  A    between atoms: _263  and  _264
REMARK  108  A    between atoms: _264  and  _265
REMARK  109  A    between atoms: _270  and  _272
REMARK  110  A    between atoms: _272  and  _273
REMARK  111  A    between atoms: _272  and  _275
REMARK  112  A    between atoms: _275  and  _276
REMARK  113  A    between atoms: _276  and  _277
REMARK  114  A    between atoms: _277  and  _278
REMARK  115  A    between atoms: _278  and  _279
REMARK  116  A    between atoms: _283  and  _285
REMARK  117  A    between atoms: _285  and  _286
REMARK  118  A    between atoms: _289  and  _291
REMARK  119  A    between atoms: _291  and  _292
REMARK  120  A    between atoms: _294  and  _296
REMARK  121  A    between atoms: _296  and  _297
REMARK  122  A    between atoms: _296  and  _299
REMARK  123  A    between atoms: _299  and  _300
REMARK  124  A    between atoms: _305  and  _307
REMARK  125  A    between atoms: _307  and  _308
REMARK  126  A    between atoms: _307  and  _310
REMARK  127  A    between atoms: _310  and  _311
REMARK  128  A    between atoms: _311  and  _312
REMARK  129  A    between atoms: _315  and  _317
REMARK  130  A    between atoms: _317  and  _318
REMARK  131  A    between atoms: _317  and  _320
REMARK  132  A    between atoms: _320  and  _321
REMARK  133  A    between atoms: _323  and  _325
REMARK  134  A    between atoms: _325  and  _326
REMARK  135  A    between atoms: _325  and  _328
REMARK  136  A    between atoms: _328  and  _329
REMARK  137  A    between atoms: _335  and  _337
REMARK  138  A    between atoms: _337  and  _338
REMARK  139  A    between atoms: _337  and  _340
REMARK  140  A    between atoms: _343  and  _345
REMARK  141  A    between atoms: _345  and  _346
REMARK  142  A    between atoms: _345  and  _348
REMARK  143  A    between atoms: _348  and  _349
REMARK  144  A    between atoms: _352  and  _354
REMARK  145  A    between atoms: _354  and  _355
REMARK  146  A    between atoms: _354  and  _357
REMARK  147  A    between atoms: _357  and  _358
REMARK  148  A    between atoms: _361  and  _363
REMARK  149  A    between atoms: _363  and  _364
REMARK  150  A    between atoms: _363  and  _366
REMARK  151  A    between atoms: _366  and  _367
REMARK  152  A    between atoms: _370  and  _372
REMARK  153  A    between atoms: _372  and  _373
REMARK  154  A    between atoms: _372  and  _375
REMARK  155  A    between atoms: _375  and  _376
REMARK  156  A    between atoms: _379  and  _381
REMARK  157  A    between atoms: _381  and  _382
REMARK  158  A    between atoms: _381  and  _384
REMARK  159  A    between atoms: _384  and  _385
REMARK  160  A    between atoms: _390  and  _391
REMARK  161  A    between atoms: _393  and  _395
REMARK  162  A    between atoms: _395  and  _396
REMARK  163  A    between atoms: _395  and  _398
REMARK  164  A    between atoms: _398  and  _399
REMARK  165  A    between atoms: _404  and  _405
REMARK  166  A    between atoms: _407  and  _409
REMARK  167  A    between atoms: _409  and  _410
REMARK  168  A    between atoms: _409  and  _412
REMARK  169  A    between atoms: _412  and  _413
REMARK  170  A    between atoms: _416  and  _418
REMARK  171  A    between atoms: _418  and  _419
REMARK  172  A    between atoms: _418  and  _421
REMARK  173  A    between atoms: _421  and  _422
REMARK  174  A    between atoms: _422  and  _423
REMARK  175  A    between atoms: _428  and  _430
REMARK  176  A    between atoms: _430  and  _431
REMARK  177  A    between atoms: _430  and  _433
REMARK  178  A    between atoms: _436  and  _438
REMARK  179  A    between atoms: _438  and  _439
REMARK  180  A    between atoms: _438  and  _441
REMARK  181  A    between atoms: _441  and  _442
REMARK  182  A    between atoms: _445  and  _447
REMARK  183  A    between atoms: _447  and  _448
REMARK  184  A    between atoms: _447  and  _450
REMARK  185  A    between atoms: _450  and  _451
REMARK  186  A    between atoms: _453  and  _455
REMARK  187  A    between atoms: _455  and  _456
REMARK  188  A    between atoms: _458  and  _460
REMARK  189  A    between atoms: _460  and  _461
REMARK  190  A    between atoms: _460  and  _463
REMARK  191  A    between atoms: _463  and  _464
REMARK  192  A    between atoms: _464  and  _790
REMARK  193  A    between atoms: _465  and  _467
REMARK  194  A    between atoms: _467  and  _468
REMARK  195  A    between atoms: _467  and  _470
REMARK  196  A    between atoms: _470  and  _471
REMARK  197  A    between atoms: _476  and  _477
REMARK  198  A    between atoms: _479  and  _481
REMARK  199  A    between atoms: _481  and  _482
REMARK  200  A    between atoms: _481  and  _484
REMARK  201  A    between atoms: _484  and  _485
REMARK  202  A    between atoms: _485  and  _486
REMARK  203  A    between atoms: _491  and  _493
REMARK  204  A    between atoms: _493  and  _494
REMARK  205  A    between atoms: _493  and  _496
REMARK  206  A    between atoms: _496  and  _497
REMARK  207  A    between atoms: _497  and  _498
REMARK  208  A    between atoms: _503  and  _505
REMARK  209  A    between atoms: _505  and  _506
REMARK  210  A    between atoms: _505  and  _508
REMARK  211  A    between atoms: _508  and  _509
REMARK  212  A    between atoms: _514  and  _515
REMARK  213  A    between atoms: _517  and  _519
REMARK  214  A    between atoms: _519  and  _520
REMARK  215  A    between atoms: _523  and  _525
REMARK  216  A    between atoms: _525  and  _526
REMARK  217  A    between atoms: _525  and  _528
REMARK  218  A    between atoms: _528  and  _529
REMARK  219  A    between atoms: _534  and  _535
REMARK  220  A    between atoms: _537  and  _539
REMARK  221  A    between atoms: _539  and  _540
REMARK  222  A    between atoms: _539  and  _542
REMARK  223  A    between atoms: _542  and  _543
REMARK  224  A    between atoms: _548  and  _549
REMARK  225  A    between atoms: _551  and  _553
REMARK  226  A    between atoms: _553  and  _554
REMARK  227  A    between atoms: _553  and  _556
REMARK  228  A    between atoms: _556  and  _557
REMARK  229  A    between atoms: _560  and  _562
REMARK  230  A    between atoms: _562  and  _563
REMARK  231  A    between atoms: _562  and  _565
REMARK  232  A    between atoms: _565  and  _566
REMARK  233  A    between atoms: _576  and  _578
REMARK  234  A    between atoms: _578  and  _579
REMARK  235  A    between atoms: _582  and  _584
REMARK  236  A    between atoms: _584  and  _585
REMARK  237  A    between atoms: _588  and  _590
REMARK  238  A    between atoms: _590  and  _591
REMARK  239  A    between atoms: _590  and  _593
REMARK  240  A    between atoms: _593  and  _594
REMARK  241  A    between atoms: _597  and  _599
REMARK  242  A    between atoms: _599  and  _600
REMARK  243  A    between atoms: _599  and  _602
REMARK  244  A    between atoms: _602  and  _603
REMARK  245  A    between atoms: _606  and  _608
REMARK  246  A    between atoms: _608  and  _609
REMARK  247  A    between atoms: _608  and  _611
REMARK  248  A    between atoms: _611  and  _612
REMARK  249  A    between atoms: _615  and  _617
REMARK  250  A    between atoms: _617  and  _618
REMARK  251  A    between atoms: _617  and  _620
REMARK  252  A    between atoms: _620  and  _621
REMARK  253  A    between atoms: _621  and  _622
REMARK  254  A    between atoms: _622  and  _623
REMARK  255  A    between atoms: _623  and  _624
REMARK  256  A    between atoms: _628  and  _630
REMARK  257  A    between atoms: _630  and  _631
REMARK  258  A    between atoms: _630  and  _633
REMARK  259  A    between atoms: _633  and  _634
REMARK  260  A    between atoms: _639  and  _641
REMARK  261  A    between atoms: _641  and  _642
REMARK  262  A    between atoms: _641  and  _644
REMARK  263  A    between atoms: _644  and  _645
REMARK  264  A    between atoms: _645  and  _646
REMARK  265  A    between atoms: _646  and  _647
REMARK  266  A    between atoms: _647  and  _648
REMARK  267  A    between atoms: _652  and  _654
REMARK  268  A    between atoms: _654  and  _655
REMARK  269  A    between atoms: _654  and  _657
REMARK  270  A    between atoms: _657  and  _658
REMARK  271  A    between atoms: _668  and  _670
REMARK  272  A    between atoms: _670  and  _671
REMARK  273  A    between atoms: _674  and  _676
REMARK  274  A    between atoms: _676  and  _677
REMARK  275  A    between atoms: _679  and  _681
REMARK  276  A    between atoms: _681  and  _682
REMARK  277  A    between atoms: _685  and  _687
REMARK  278  A    between atoms: _687  and  _688
REMARK  279  A    between atoms: _691  and  _693
REMARK  280  A    between atoms: _693  and  _694
REMARK  281  A    between atoms: _693  and  _696
REMARK  282  A    between atoms: _696  and  _697
REMARK  283  A    between atoms: _697  and  _698
REMARK  284  A    between atoms: _701  and  _703
REMARK  285  A    between atoms: _703  and  _704
REMARK  286  A    between atoms: _703  and  _706
REMARK  287  A    between atoms: _706  and  _707
REMARK  288  A    between atoms: _712  and  _713
REMARK  289  A    between atoms: _715  and  _717
REMARK  290  A    between atoms: _717  and  _718
REMARK  291  A    between atoms: _717  and  _720
REMARK  292  A    between atoms: _720  and  _721
REMARK  293  A    between atoms: _726  and  _727
REMARK  294  A    between atoms: _729  and  _731
REMARK  295  A    between atoms: _731  and  _732
REMARK  296  A    between atoms: _731  and  _734
REMARK  297  A    between atoms: _734  and  _735
REMARK  298  A    between atoms: _735  and  _736
REMARK  299  A    between atoms: _736  and  _737
REMARK  300  A    between atoms: _746  and  _748
REMARK  301  A    between atoms: _748  and  _749
REMARK  302  A    between atoms: _752  and  _754
REMARK  303  A    between atoms: _754  and  _755
REMARK  304  A    between atoms: _754  and  _757
REMARK  305  A    between atoms: _757  and  _758
REMARK  306  A    between atoms: _763  and  _764
REMARK  307  A    between atoms: _766  and  _768
REMARK  308  A    between atoms: _768  and  _769
REMARK  309  A    between atoms: _768  and  _771
REMARK  310  A    between atoms: _771  and  _772
REMARK  311  A    between atoms: _775  and  _777
REMARK  312  A    between atoms: _777  and  _778
REMARK  313  A    between atoms: _777  and  _780
REMARK  314  A    between atoms: _780  and  _781
REMARK  315  A    between atoms: _784  and  _786
REMARK  316  A    between atoms: _786  and  _787
REMARK  317  A    between atoms: _786  and  _789
REMARK  318  A    between atoms: _789  and  _790
REMARK  319  A    between atoms: _791  and  _793
REMARK  320  A    between atoms: _793  and  _794
REMARK  321  A    between atoms: _793  and  _796
REMARK  322  A    between atoms: _799  and  _801
REMARK  323  A    between atoms: _801  and  _802
REMARK  324  A    between atoms: _801  and  _804
REMARK  325  A    between atoms: _804  and  _805
REMARK  326  A    between atoms: _805  and  _806
REMARK  327  A    between atoms: _809  and  _811
REMARK  328  A    between atoms: _811  and  _812
REMARK  329  A    between atoms: _811  and  _814
REMARK  330  A    between atoms: _814  and  _815
REMARK  331  A    between atoms: _825  and  _827
REMARK  332  A    between atoms: _827  and  _828
REMARK  333  A    between atoms: _827  and  _830
REMARK  334  A    between atoms: _830  and  _831
REMARK  335  A    between atoms: _834  and  _836
REMARK  336  A    between atoms: _836  and  _837
REMARK  337  A    between atoms: _836  and  _839
REMARK  338  A    between atoms: _839  and  _840
REMARK  339  A    between atoms: _840  and  _841
REMARK  340  A    between atoms: _841  and  _842
REMARK  341  A    between atoms: _851  and  _853
REMARK  342  A    between atoms: _853  and  _854
REMARK  343  A    between atoms: _853  and  _856
REMARK  344  A    between atoms: _856  and  _857
REMARK  345  A    between atoms: _862  and  _863
REMARK                            x       y       z     vdW  Elec       q    Type
REMARK                         _______ _______ _______ _____ _____    ______ ____
ROOT
ATOM      1  O   HOH     1      45.790  55.025   6.117  0.00  0.00    +0.000 OA
ENDROOT
TORSDOF 0
REMARK  Name = ../refined-set-2016/1fzj/1fzj_pocket.pdb
REMARK  345 active torsions:
REMARK  status: ('A' for Active; 'I' for Inactive)
REMARK    1  A    between atoms: _1  and  _3
REMARK    2  A    between atoms: _3  and  _4
REMARK    3  A    between atoms: _3  and  _6
REMARK    4  A    between atoms: _6  and  _7
REMARK    5  A    between atoms: _10  and  _12
REMARK    6  A    between atoms: _12  and  _13
REMARK    7  A    between atoms: _12  and  _15
REMARK    8  A    between atoms: _15  and  _16
REMARK    9  A    between atoms: _16  and  _17
REMARK   10  A    between atoms: _17  and  _18
REMARK   11  A    between atoms: _27  and  _29
REMARK   12  A    between atoms: _29  and  _30
REMARK   13  A    between atoms: _29  and  _32
REMARK   14  A    between atoms: _32  and  _33
REMARK   15  A    between atoms: _38  and  _39
REMARK   16  A    between atoms: _41  and  _43
REMARK   17  A    between atoms: _43  and  _44
REMARK   18  A    between atoms: _43  and  _46
REMARK   19  A    between atoms: _46  and  _47
REMARK   20  A    between atoms: _53  and  _55
REMARK   21  A    between atoms: _55  and  _56
REMARK   22  A    between atoms: _55  and  _58
REMARK   23  A    between atoms: _61  and  _63
REMARK   24  A    between atoms: _63  and  _64
REMARK   25  A    between atoms: _63  and  _66
REMARK   26  A    between atoms: _66  and  _67
REMARK   27  A    between atoms: _70  and  _72
REMARK   28  A    between atoms: _72  and  _73
REMARK   29  A    between atoms: _72  and  _75
REMARK   30  A    between atoms: _75  and  _76
REMARK   31  A    between atoms: _81  and  _82
REMARK   32  A    between atoms: _84  and  _86
REMARK   33  A    between atoms: _86  and  _87
REMARK   34  A    between atoms: _86  and  _89
REMARK   35  A    between atoms: _89  and  _90
REMARK   36  A    between atoms: _90  and  _91
REMARK   37  A    between atoms: _93  and  _95
REMARK   38  A    between atoms: _95  and  _96
REMARK   39  A    between atoms: _95  and  _98
REMARK   40  A    between atoms: _98  and  _99
REMARK   41  A    between atoms: _99  and  _100
REMARK   42  A    between atoms: _103  and  _105
REMARK   43  A    between atoms: _105  and  _106
REMARK   44  A    between atoms: _105  and  _108
REMARK   45  A    between atoms: _111  and  _113
REMARK   46  A    between atoms: _113  and  _114
REMARK   47  A    between atoms: _113  and  _116
REMARK   48  A    between atoms: _119  and  _121
REMARK   49  A    between atoms: _121  and  _122
REMARK   50  A    between atoms: _121  and  _124
REMARK   51  A    between atoms: _124  and  _125
REMARK   52  A    between atoms: _131  and  _133
REMARK   53  A    between atoms: _133  and  _134
REMARK   54  A    between atoms: _133  and  _136
REMARK   55  A    between atoms: _139  and  _141
REMARK   56  A    between atoms: _141  and  _142
REMARK   57  A    between atoms: _141  and  _144
REMARK   58  A    between atoms: _144  and  _145
REMARK   59  A    between atoms: _150  and  _151
REMARK   60  A    between atoms: _153  and  _155
REMARK   61  A    between atoms: _155  and  _156
REMARK   62  A    between atoms: _155  and  _158
REMARK   63  A    between atoms: _158  and  _159
REMARK   64  A    between atoms: _159  and  _160
REMARK   65  A    between atoms: _162  and  _164
REMARK   66  A    between atoms: _164  and  _165
REMARK   67  A    between atoms: _164  and  _167
REMARK   68  A    between atoms: _167  and  _168
REMARK   69  A    between atoms: _168  and  _169
REMARK   70  A    between atoms: _172  and  _174
REMARK   71  A    between atoms: _174  and  _175
REMARK   72  A    between atoms: _174  and  _177
REMARK   73  A    between atoms: _177  and  _178
REMARK   74  A    between atoms: _178  and  _179
REMARK   75  A    between atoms: _182  and  _184
REMARK   76  A    between atoms: _184  and  _185
REMARK   77  A    between atoms: _184  and  _187
REMARK   78  A    between atoms: _187  and  _188
REMARK   79  A    between atoms: _193  and  _194
REMARK   80  A    between atoms: _196  and  _198
REMARK   81  A    between atoms: _198  and  _199
REMARK   82  A    between atoms: _198  and  _201
REMARK   83  A    between atoms: _201  and  _202
REMARK   84  A    between atoms: _212  and  _214
REMARK   85  A    between atoms: _214  and  _215
REMARK   86  A    between atoms: _214  and  _217
REMARK   87  A    between atoms: _217  and  _218
REMARK   88  A    between atoms: _218  and  _219
REMARK   89  A    between atoms: _222  and  _224
REMARK   90  A    between atoms: _224  and  _225
REMARK   91  A    between atoms: _224  and  _227
REMARK   92  A    between atoms: _227  and  _228
REMARK   93  A    between atoms: _228  and  _229
REMARK   94  A    between atoms: _229  and  _230
REMARK   95  A    between atoms: _239  and  _241
REMARK   96  A    between atoms: _241  and  _242
REMARK   97  A    between atoms: _241  and  _244
REMARK   98  A    between atoms: _244  and  _245
REMARK   99  A    between atoms: _245  and  _246
REMARK  100  A    between atoms: _249  and  _251
REMARK  101  A    between atoms: _251  and  _252
REMARK  102  A    between atoms: _251  and  _254
REMARK  103  A    between atoms: _254  and  _255
REMARK  104  A    between atoms: _258  and  _260
REMARK  105  A    between atoms: _260  and  _261
REMARK  106  A    between atoms: _260  and  _263
REMARK  107  A    between atoms: _263  and  _264
REMARK  108  A    between atoms: _264  and  _265
REMARK  109  A    between atoms: _270  and  _272
REMARK  110  A    between atoms: _272  and  _273
REMARK  111  A    between atoms: _272  and  _275
REMARK  112  A    between atoms: _275  and  _276
REMARK  113  A    between atoms: _276  and  _277
REMARK  114  A    between atoms: _277  and  _278
REMARK  115  A    between atoms: _278  and  _279
REMARK  116  A    between atoms: _283  and  _285
REMARK  117  A    between atoms: _285  and  _286
REMARK  118  A    between atoms: _289  and  _291
REMARK  119  A    between atoms: _291  and  _292
REMARK  120  A    between atoms: _294  and  _296
REMARK  121  A    between atoms: _296  and  _297
REMARK  122  A    between atoms: _296  and  _299
REMARK  123  A    between atoms: _299  and  _300
REMARK  124  A    between atoms: _305  and  _307
REMARK  125  A    between atoms: _307  and  _308
REMARK  126  A    between atoms: _307  and  _310
REMARK  127  A    between atoms: _310  and  _311
REMARK  128  A    between atoms: _311  and  _312
REMARK  129  A    between atoms: _315  and  _317
REMARK  130  A    between atoms: _317  and  _318
REMARK  131  A    between atoms: _317  and  _320
REMARK  132  A    between atoms: _320  and  _321
REMARK  133  A    between atoms: _323  and  _325
REMARK  134  A    between atoms: _325  and  _326
REMARK  135  A    between atoms: _325  and  _328
REMARK  136  A    between atoms: _328  and  _329
REMARK  137  A    between atoms: _335  and  _337
REMARK  138  A    between atoms: _337  and  _338
REMARK  139  A    between atoms: _337  and  _340
REMARK  140  A    between atoms: _343  and  _345
REMARK  141  A    between atoms: _345  and  _346
REMARK  142  A    between atoms: _345  and  _348
REMARK  143  A    between atoms: _348  and  _349
REMARK  144  A    between atoms: _352  and  _354
REMARK  145  A    between atoms: _354  and  _355
REMARK  146  A    between atoms: _354  and  _357
REMARK  147  A    between atoms: _357  and  _358
REMARK  148  A    between atoms: _361  and  _363
REMARK  149  A    between atoms: _363  and  _364
REMARK  150  A    between atoms: _363  and  _366
REMARK  151  A    between atoms: _366  and  _367
REMARK  152  A    between atoms: _370  and  _372
REMARK  153  A    between atoms: _372  and  _373
REMARK  154  A    between atoms: _372  and  _375
REMARK  155  A    between atoms: _375  and  _376
REMARK  156  A    between atoms: _379  and  _381
REMARK  157  A    between atoms: _381  and  _382
REMARK  158  A    between atoms: _381  and  _384
REMARK  159  A    between atoms: _384  and  _385
REMARK  160  A    between atoms: _390  and  _391
REMARK  161  A    between atoms: _393  and  _395
REMARK  162  A    between atoms: _395  and  _396
REMARK  163  A    between atoms: _395  and  _398
REMARK  164  A    between atoms: _398  and  _399
REMARK  165  A    between atoms: _404  and  _405
REMARK  166  A    between atoms: _407  and  _409
REMARK  167  A    between atoms: _409  and  _410
REMARK  168  A    between atoms: _409  and  _412
REMARK  169  A    between atoms: _412  and  _413
REMARK  170  A    between atoms: _416  and  _418
REMARK  171  A    between atoms: _418  and  _419
REMARK  172  A    between atoms: _418  and  _421
REMARK  173  A    between atoms: _421  and  _422
REMARK  174  A    between atoms: _422  and  _423
REMARK  175  A    between atoms: _428  and  _430
REMARK  176  A    between atoms: _430  and  _431
REMARK  177  A    between atoms: _430  and  _433
REMARK  178  A    between atoms: _436  and  _438
REMARK  179  A    between atoms: _438  and  _439
REMARK  180  A    between atoms: _438  and  _441
REMARK  181  A    between atoms: _441  and  _442
REMARK  182  A    between atoms: _445  and  _447
REMARK  183  A    between atoms: _447  and  _448
REMARK  184  A    between atoms: _447  and  _450
REMARK  185  A    between atoms: _450  and  _451
REMARK  186  A    between atoms: _453  and  _455
REMARK  187  A    between atoms: _455  and  _456
REMARK  188  A    between atoms: _458  and  _460
REMARK  189  A    between atoms: _460  and  _461
REMARK  190  A    between atoms: _460  and  _463
REMARK  191  A    between atoms: _463  and  _464
REMARK  192  A    between atoms: _464  and  _790
REMARK  193  A    between atoms: _465  and  _467
REMARK  194  A    between atoms: _467  and  _468
REMARK  195  A    between atoms: _467  and  _470
REMARK  196  A    between atoms: _470  and  _471
REMARK  197  A    between atoms: _476  and  _477
REMARK  198  A    between atoms: _479  and  _481
REMARK  199  A    between atoms: _481  and  _482
REMARK  200  A    between atoms: _481  and  _484
REMARK  201  A    between atoms: _484  and  _485
REMARK  202  A    between atoms: _485  and  _486
REMARK  203  A    between atoms: _491  and  _493
REMARK  204  A    between atoms: _493  and  _494
REMARK  205  A    between atoms: _493  and  _496
REMARK  206  A    between atoms: _496  and  _497
REMARK  207  A    between atoms: _497  and  _498
REMARK  208  A    between atoms: _503  and  _505
REMARK  209  A    between atoms: _505  and  _506
REMARK  210  A    between atoms: _505  and  _508
REMARK  211  A    between atoms: _508  and  _509
REMARK  212  A    between atoms: _514  and  _515
REMARK  213  A    between atoms: _517  and  _519
REMARK  214  A    between atoms: _519  and  _520
REMARK  215  A    between atoms: _523  and  _525
REMARK  216  A    between atoms: _525  and  _526
REMARK  217  A    between atoms: _525  and  _528
REMARK  218  A    between atoms: _528  and  _529
REMARK  219  A    between atoms: _534  and  _535
REMARK  220  A    between atoms: _537  and  _539
REMARK  221  A    between atoms: _539  and  _540
REMARK  222  A    between atoms: _539  and  _542
REMARK  223  A    between atoms: _542  and  _543
REMARK  224  A    between atoms: _548  and  _549
REMARK  225  A    between atoms: _551  and  _553
REMARK  226  A    between atoms: _553  and  _554
REMARK  227  A    between atoms: _553  and  _556
REMARK  228  A    between atoms: _556  and  _557
REMARK  229  A    between atoms: _560  and  _562
REMARK  230  A    between atoms: _562  and  _563
REMARK  231  A    between atoms: _562  and  _565
REMARK  232  A    between atoms: _565  and  _566
REMARK  233  A    between atoms: _576  and  _578
REMARK  234  A    between atoms: _578  and  _579
REMARK  235  A    between atoms: _582  and  _584
REMARK  236  A    between atoms: _584  and  _585
REMARK  237  A    between atoms: _588  and  _590
REMARK  238  A    between atoms: _590  and  _591
REMARK  239  A    between atoms: _590  and  _593
REMARK  240  A    between atoms: _593  and  _594
REMARK  241  A    between atoms: _597  and  _599
REMARK  242  A    between atoms: _599  and  _600
REMARK  243  A    between atoms: _599  and  _602
REMARK  244  A    between atoms: _602  and  _603
REMARK  245  A    between atoms: _606  and  _608
REMARK  246  A    between atoms: _608  and  _609
REMARK  247  A    between atoms: _608  and  _611
REMARK  248  A    between atoms: _611  and  _612
REMARK  249  A    between atoms: _615  and  _617
REMARK  250  A    between atoms: _617  and  _618
REMARK  251  A    between atoms: _617  and  _620
REMARK  252  A    between atoms: _620  and  _621
REMARK  253  A    between atoms: _621  and  _622
REMARK  254  A    between atoms: _622  and  _623
REMARK  255  A    between atoms: _623  and  _624
REMARK  256  A    between atoms: _628  and  _630
REMARK  257  A    between atoms: _630  and  _631
REMARK  258  A    between atoms: _630  and  _633
REMARK  259  A    between atoms: _633  and  _634
REMARK  260  A    between atoms: _639  and  _641
REMARK  261  A    between atoms: _641  and  _642
REMARK  262  A    between atoms: _641  and  _644
REMARK  263  A    between atoms: _644  and  _645
REMARK  264  A    between atoms: _645  and  _646
REMARK  265  A    between atoms: _646  and  _647
REMARK  266  A    between atoms: _647  and  _648
REMARK  267  A    between atoms: _652  and  _654
REMARK  268  A    between atoms: _654  and  _655
REMARK  269  A    between atoms: _654  and  _657
REMARK  270  A    between atoms: _657  and  _658
REMARK  271  A    between atoms: _668  and  _670
REMARK  272  A    between atoms: _670  and  _671
REMARK  273  A    between atoms: _674  and  _676
REMARK  274  A    between atoms: _676  and  _677
REMARK  275  A    between atoms: _679  and  _681
REMARK  276  A    between atoms: _681  and  _682
REMARK  277  A    between atoms: _685  and  _687
REMARK  278  A    between atoms: _687  and  _688
REMARK  279  A    between atoms: _691  and  _693
REMARK  280  A    between atoms: _693  and  _694
REMARK  281  A    between atoms: _693  and  _696
REMARK  282  A    between atoms: _696  and  _697
REMARK  283  A    between atoms: _697  and  _698
REMARK  284  A    between atoms: _701  and  _703
REMARK  285  A    between atoms: _703  and  _704
REMARK  286  A    between atoms: _703  and  _706
REMARK  287  A    between atoms: _706  and  _707
REMARK  288  A    between atoms: _712  and  _713
REMARK  289  A    between atoms: _715  and  _717
REMARK  290  A    between atoms: _717  and  _718
REMARK  291  A    between atoms: _717  and  _720
REMARK  292  A    between atoms: _720  and  _721
REMARK  293  A    between atoms: _726  and  _727
REMARK  294  A    between atoms: _729  and  _731
REMARK  295  A    between atoms: _731  and  _732
REMARK  296  A    between atoms: _731  and  _734
REMARK  297  A    between atoms: _734  and  _735
REMARK  298  A    between atoms: _735  and  _736
REMARK  299  A    between atoms: _736  and  _737
REMARK  300  A    between atoms: _746  and  _748
REMARK  301  A    between atoms: _748  and  _749
REMARK  302  A    between atoms: _752  and  _754
REMARK  303  A    between atoms: _754  and  _755
REMARK  304  A    between atoms: _754  and  _757
REMARK  305  A    between atoms: _757  and  _758
REMARK  306  A    between atoms: _763  and  _764
REMARK  307  A    between atoms: _766  and  _768
REMARK  308  A    between atoms: _768  and  _769
REMARK  309  A    between atoms: _768  and  _771
REMARK  310  A    between atoms: _771  and  _772
REMARK  311  A    between atoms: _775  and  _777
REMARK  312  A    between atoms: _777  and  _778
REMARK  313  A    between atoms: _777  and  _780
REMARK  314  A    between atoms: _780  and  _781
REMARK  315  A    between atoms: _784  and  _786
REMARK  316  A    between atoms: _786  and  _787
REMARK  317  A    between atoms: _786  and  _789
REMARK  318  A    between atoms: _789  and  _790
REMARK  319  A    between atoms: _791  and  _793
REMARK  320  A    between atoms: _793  and  _794
REMARK  321  A    between atoms: _793  and  _796
REMARK  322  A    between atoms: _799  and  _801
REMARK  323  A    between atoms: _801  and  _802
REMARK  324  A    between atoms: _801  and  _804
REMARK  325  A    between atoms: _804  and  _805
REMARK  326  A    between atoms: _805  and  _806
REMARK  327  A    between atoms: _809  and  _811
REMARK  328  A    between atoms: _811  and  _812
REMARK  329  A    between atoms: _811  and  _814
REMARK  330  A    between atoms: _814  and  _815
REMARK  331  A    between atoms: _825  and  _827
REMARK  332  A    between atoms: _827  and  _828
REMARK  333  A    between atoms: _827  and  _830
REMARK  334  A    between atoms: _830  and  _831
REMARK  335  A    between atoms: _834  and  _836
REMARK  336  A    between atoms: _836  and  _837
REMARK  337  A    between atoms: _836  and  _839
REMARK  338  A    between atoms: _839  and  _840
REMARK  339  A    between atoms: _840  and  _841
REMARK  340  A    between atoms: _841  and  _842
REMARK  341  A    between atoms: _851  and  _853
REMARK  342  A    between atoms: _853  and  _854
REMARK  343  A    between atoms: _853  and  _856
REMARK  344  A    between atoms: _856  and  _857
REMARK  345  A    between atoms: _862  and  _863
REMARK                            x       y       z     vdW  Elec       q    Type
REMARK                         _______ _______ _______ _____ _____    ______ ____
ROOT
ATOM      1  O   HOH     1      45.323  57.710 -10.967  0.00  0.00    +0.000 OA
ENDROOT
TORSDOF 0
REMARK  Name = ../refined-set-2016/1fzj/1fzj_pocket.pdb
REMARK  345 active torsions:
REMARK  status: ('A' for Active; 'I' for Inactive)
REMARK    1  A    between atoms: _1  and  _3
REMARK    2  A    between atoms: _3  and  _4
REMARK    3  A    between atoms: _3  and  _6
REMARK    4  A    between atoms: _6  and  _7
REMARK    5  A    between atoms: _10  and  _12
REMARK    6  A    between atoms: _12  and  _13
REMARK    7  A    between atoms: _12  and  _15
REMARK    8  A    between atoms: _15  and  _16
REMARK    9  A    between atoms: _16  and  _17
REMARK   10  A    between atoms: _17  and  _18
REMARK   11  A    between atoms: _27  and  _29
REMARK   12  A    between atoms: _29  and  _30
REMARK   13  A    between atoms: _29  and  _32
REMARK   14  A    between atoms: _32  and  _33
REMARK   15  A    between atoms: _38  and  _39
REMARK   16  A    between atoms: _41  and  _43
REMARK   17  A    between atoms: _43  and  _44
REMARK   18  A    between atoms: _43  and  _46
REMARK   19  A    between atoms: _46  and  _47
REMARK   20  A    between atoms: _53  and  _55
REMARK   21  A    between atoms: _55  and  _56
REMARK   22  A    between atoms: _55  and  _58
REMARK   23  A    between atoms: _61  and  _63
REMARK   24  A    between atoms: _63  and  _64
REMARK   25  A    between atoms: _63  and  _66
REMARK   26  A    between atoms: _66  and  _67
REMARK   27  A    between atoms: _70  and  _72
REMARK   28  A    between atoms: _72  and  _73
REMARK   29  A    between atoms: _72  and  _75
REMARK   30  A    between atoms: _75  and  _76
REMARK   31  A    between atoms: _81  and  _82
REMARK   32  A    between atoms: _84  and  _86
REMARK   33  A    between atoms: _86  and  _87
REMARK   34  A    between atoms: _86  and  _89
REMARK   35  A    between atoms: _89  and  _90
REMARK   36  A    between atoms: _90  and  _91
REMARK   37  A    between atoms: _93  and  _95
REMARK   38  A    between atoms: _95  and  _96
REMARK   39  A    between atoms: _95  and  _98
REMARK   40  A    between atoms: _98  and  _99
REMARK   41  A    between atoms: _99  and  _100
REMARK   42  A    between atoms: _103  and  _105
REMARK   43  A    between atoms: _105  and  _106
REMARK   44  A    between atoms: _105  and  _108
REMARK   45  A    between atoms: _111  and  _113
REMARK   46  A    between atoms: _113  and  _114
REMARK   47  A    between atoms: _113  and  _116
REMARK   48  A    between atoms: _119  and  _121
REMARK   49  A    between atoms: _121  and  _122
REMARK   50  A    between atoms: _121  and  _124
REMARK   51  A    between atoms: _124  and  _125
REMARK   52  A    between atoms: _131  and  _133
REMARK   53  A    between atoms: _133  and  _134
REMARK   54  A    between atoms: _133  and  _136
REMARK   55  A    between atoms: _139  and  _141
REMARK   56  A    between atoms: _141  and  _142
REMARK   57  A    between atoms: _141  and  _144
REMARK   58  A    between atoms: _144  and  _145
REMARK   59  A    between atoms: _150  and  _151
REMARK   60  A    between atoms: _153  and  _155
REMARK   61  A    between atoms: _155  and  _156
REMARK   62  A    between atoms: _155  and  _158
REMARK   63  A    between atoms: _158  and  _159
REMARK   64  A    between atoms: _159  and  _160
REMARK   65  A    between atoms: _162  and  _164
REMARK   66  A    between atoms: _164  and  _165
REMARK   67  A    between atoms: _164  and  _167
REMARK   68  A    between atoms: _167  and  _168
REMARK   69  A    between atoms: _168  and  _169
REMARK   70  A    between atoms: _172  and  _174
REMARK   71  A    between atoms: _174  and  _175
REMARK   72  A    between atoms: _174  and  _177
REMARK   73  A    between atoms: _177  and  _178
REMARK   74  A    between atoms: _178  and  _179
REMARK   75  A    between atoms: _182  and  _184
REMARK   76  A    between atoms: _184  and  _185
REMARK   77  A    between atoms: _184  and  _187
REMARK   78  A    between atoms: _187  and  _188
REMARK   79  A    between atoms: _193  and  _194
REMARK   80  A    between atoms: _196  and  _198
REMARK   81  A    between atoms: _198  and  _199
REMARK   82  A    between atoms: _198  and  _201
REMARK   83  A    between atoms: _201  and  _202
REMARK   84  A    between atoms: _212  and  _214
REMARK   85  A    between atoms: _214  and  _215
REMARK   86  A    between atoms: _214  and  _217
REMARK   87  A    between atoms: _217  and  _218
REMARK   88  A    between atoms: _218  and  _219
REMARK   89  A    between atoms: _222  and  _224
REMARK   90  A    between atoms: _224  and  _225
REMARK   91  A    between atoms: _224  and  _227
REMARK   92  A    between atoms: _227  and  _228
REMARK   93  A    between atoms: _228  and  _229
REMARK   94  A    between atoms: _229  and  _230
REMARK   95  A    between atoms: _239  and  _241
REMARK   96  A    between atoms: _241  and  _242
REMARK   97  A    between atoms: _241  and  _244
REMARK   98  A    between atoms: _244  and  _245
REMARK   99  A    between atoms: _245  and  _246
REMARK  100  A    between atoms: _249  and  _251
REMARK  101  A    between atoms: _251  and  _252
REMARK  102  A    between atoms: _251  and  _254
REMARK  103  A    between atoms: _254  and  _255
REMARK  104  A    between atoms: _258  and  _260
REMARK  105  A    between atoms: _260  and  _261
REMARK  106  A    between atoms: _260  and  _263
REMARK  107  A    between atoms: _263  and  _264
REMARK  108  A    between atoms: _264  and  _265
REMARK  109  A    between atoms: _270  and  _272
REMARK  110  A    between atoms: _272  and  _273
REMARK  111  A    between atoms: _272  and  _275
REMARK  112  A    between atoms: _275  and  _276
REMARK  113  A    between atoms: _276  and  _277
REMARK  114  A    between atoms: _277  and  _278
REMARK  115  A    between atoms: _278  and  _279
REMARK  116  A    between atoms: _283  and  _285
REMARK  117  A    between atoms: _285  and  _286
REMARK  118  A    between atoms: _289  and  _291
REMARK  119  A    between atoms: _291  and  _292
REMARK  120  A    between atoms: _294  and  _296
REMARK  121  A    between atoms: _296  and  _297
REMARK  122  A    between atoms: _296  and  _299
REMARK  123  A    between atoms: _299  and  _300
REMARK  124  A    between atoms: _305  and  _307
REMARK  125  A    between atoms: _307  and  _308
REMARK  126  A    between atoms: _307  and  _310
REMARK  127  A    between atoms: _310  and  _311
REMARK  128  A    between atoms: _311  and  _312
REMARK  129  A    between atoms: _315  and  _317
REMARK  130  A    between atoms: _317  and  _318
REMARK  131  A    between atoms: _317  and  _320
REMARK  132  A    between atoms: _320  and  _321
REMARK  133  A    between atoms: _323  and  _325
REMARK  134  A    between atoms: _325  and  _326
REMARK  135  A    between atoms: _325  and  _328
REMARK  136  A    between atoms: _328  and  _329
REMARK  137  A    between atoms: _335  and  _337
REMARK  138  A    between atoms: _337  and  _338
REMARK  139  A    between atoms: _337  and  _340
REMARK  140  A    between atoms: _343  and  _345
REMARK  141  A    between atoms: _345  and  _346
REMARK  142  A    between atoms: _345  and  _348
REMARK  143  A    between atoms: _348  and  _349
REMARK  144  A    between atoms: _352  and  _354
REMARK  145  A    between atoms: _354  and  _355
REMARK  146  A    between atoms: _354  and  _357
REMARK  147  A    between atoms: _357  and  _358
REMARK  148  A    between atoms: _361  and  _363
REMARK  149  A    between atoms: _363  and  _364
REMARK  150  A    between atoms: _363  and  _366
REMARK  151  A    between atoms: _366  and  _367
REMARK  152  A    between atoms: _370  and  _372
REMARK  153  A    between atoms: _372  and  _373
REMARK  154  A    between atoms: _372  and  _375
REMARK  155  A    between atoms: _375  and  _376
REMARK  156  A    between atoms: _379  and  _381
REMARK  157  A    between atoms: _381  and  _382
REMARK  158  A    between atoms: _381  and  _384
REMARK  159  A    between atoms: _384  and  _385
REMARK  160  A    between atoms: _390  and  _391
REMARK  161  A    between atoms: _393  and  _395
REMARK  162  A    between atoms: _395  and  _396
REMARK  163  A    between atoms: _395  and  _398
REMARK  164  A    between atoms: _398  and  _399
REMARK  165  A    between atoms: _404  and  _405
REMARK  166  A    between atoms: _407  and  _409
REMARK  167  A    between atoms: _409  and  _410
REMARK  168  A    between atoms: _409  and  _412
REMARK  169  A    between atoms: _412  and  _413
REMARK  170  A    between atoms: _416  and  _418
REMARK  171  A    between atoms: _418  and  _419
REMARK  172  A    between atoms: _418  and  _421
REMARK  173  A    between atoms: _421  and  _422
REMARK  174  A    between atoms: _422  and  _423
REMARK  175  A    between atoms: _428  and  _430
REMARK  176  A    between atoms: _430  and  _431
REMARK  177  A    between atoms: _430  and  _433
REMARK  178  A    between atoms: _436  and  _438
REMARK  179  A    between atoms: _438  and  _439
REMARK  180  A    between atoms: _438  and  _441
REMARK  181  A    between atoms: _441  and  _442
REMARK  182  A    between atoms: _445  and  _447
REMARK  183  A    between atoms: _447  and  _448
REMARK  184  A    between atoms: _447  and  _450
REMARK  185  A    between atoms: _450  and  _451
REMARK  186  A    between atoms: _453  and  _455
REMARK  187  A    between atoms: _455  and  _456
REMARK  188  A    between atoms: _458  and  _460
REMARK  189  A    between atoms: _460  and  _461
REMARK  190  A    between atoms: _460  and  _463
REMARK  191  A    between atoms: _463  and  _464
REMARK  192  A    between atoms: _464  and  _790
REMARK  193  A    between atoms: _465  and  _467
REMARK  194  A    between atoms: _467  and  _468
REMARK  195  A    between atoms: _467  and  _470
REMARK  196  A    between atoms: _470  and  _471
REMARK  197  A    between atoms: _476  and  _477
REMARK  198  A    between atoms: _479  and  _481
REMARK  199  A    between atoms: _481  and  _482
REMARK  200  A    between atoms: _481  and  _484
REMARK  201  A    between atoms: _484  and  _485
REMARK  202  A    between atoms: _485  and  _486
REMARK  203  A    between atoms: _491  and  _493
REMARK  204  A    between atoms: _493  and  _494
REMARK  205  A    between atoms: _493  and  _496
REMARK  206  A    between atoms: _496  and  _497
REMARK  207  A    between atoms: _497  and  _498
REMARK  208  A    between atoms: _503  and  _505
REMARK  209  A    between atoms: _505  and  _506
REMARK  210  A    between atoms: _505  and  _508
REMARK  211  A    between atoms: _508  and  _509
REMARK  212  A    between atoms: _514  and  _515
REMARK  213  A    between atoms: _517  and  _519
REMARK  214  A    between atoms: _519  and  _520
REMARK  215  A    between atoms: _523  and  _525
REMARK  216  A    between atoms: _525  and  _526
REMARK  217  A    between atoms: _525  and  _528
REMARK  218  A    between atoms: _528  and  _529
REMARK  219  A    between atoms: _534  and  _535
REMARK  220  A    between atoms: _537  and  _539
REMARK  221  A    between atoms: _539  and  _540
REMARK  222  A    between atoms: _539  and  _542
REMARK  223  A    between atoms: _542  and  _543
REMARK  224  A    between atoms: _548  and  _549
REMARK  225  A    between atoms: _551  and  _553
REMARK  226  A    between atoms: _553  and  _554
REMARK  227  A    between atoms: _553  and  _556
REMARK  228  A    between atoms: _556  and  _557
REMARK  229  A    between atoms: _560  and  _562
REMARK  230  A    between atoms: _562  and  _563
REMARK  231  A    between atoms: _562  and  _565
REMARK  232  A    between atoms: _565  and  _566
REMARK  233  A    between atoms: _576  and  _578
REMARK  234  A    between atoms: _578  and  _579
REMARK  235  A    between atoms: _582  and  _584
REMARK  236  A    between atoms: _584  and  _585
REMARK  237  A    between atoms: _588  and  _590
REMARK  238  A    between atoms: _590  and  _591
REMARK  239  A    between atoms: _590  and  _593
REMARK  240  A    between atoms: _593  and  _594
REMARK  241  A    between atoms: _597  and  _599
REMARK  242  A    between atoms: _599  and  _600
REMARK  243  A    between atoms: _599  and  _602
REMARK  244  A    between atoms: _602  and  _603
REMARK  245  A    between atoms: _606  and  _608
REMARK  246  A    between atoms: _608  and  _609
REMARK  247  A    between atoms: _608  and  _611
REMARK  248  A    between atoms: _611  and  _612
REMARK  249  A    between atoms: _615  and  _617
REMARK  250  A    between atoms: _617  and  _618
REMARK  251  A    between atoms: _617  and  _620
REMARK  252  A    between atoms: _620  and  _621
REMARK  253  A    between atoms: _621  and  _622
REMARK  254  A    between atoms: _622  and  _623
REMARK  255  A    between atoms: _623  and  _624
REMARK  256  A    between atoms: _628  and  _630
REMARK  257  A    between atoms: _630  and  _631
REMARK  258  A    between atoms: _630  and  _633
REMARK  259  A    between atoms: _633  and  _634
REMARK  260  A    between atoms: _639  and  _641
REMARK  261  A    between atoms: _641  and  _642
REMARK  262  A    between atoms: _641  and  _644
REMARK  263  A    between atoms: _644  and  _645
REMARK  264  A    between atoms: _645  and  _646
REMARK  265  A    between atoms: _646  and  _647
REMARK  266  A    between atoms: _647  and  _648
REMARK  267  A    between atoms: _652  and  _654
REMARK  268  A    between atoms: _654  and  _655
REMARK  269  A    between atoms: _654  and  _657
REMARK  270  A    between atoms: _657  and  _658
REMARK  271  A    between atoms: _668  and  _670
REMARK  272  A    between atoms: _670  and  _671
REMARK  273  A    between atoms: _674  and  _676
REMARK  274  A    between atoms: _676  and  _677
REMARK  275  A    between atoms: _679  and  _681
REMARK  276  A    between atoms: _681  and  _682
REMARK  277  A    between atoms: _685  and  _687
REMARK  278  A    between atoms: _687  and  _688
REMARK  279  A    between atoms: _691  and  _693
REMARK  280  A    between atoms: _693  and  _694
REMARK  281  A    between atoms: _693  and  _696
REMARK  282  A    between atoms: _696  and  _697
REMARK  283  A    between atoms: _697  and  _698
REMARK  284  A    between atoms: _701  and  _703
REMARK  285  A    between atoms: _703  and  _704
REMARK  286  A    between atoms: _703  and  _706
REMARK  287  A    between atoms: _706  and  _707
REMARK  288  A    between atoms: _712  and  _713
REMARK  289  A    between atoms: _715  and  _717
REMARK  290  A    between atoms: _717  and  _718
REMARK  291  A    between atoms: _717  and  _720
REMARK  292  A    between atoms: _720  and  _721
REMARK  293  A    between atoms: _726  and  _727
REMARK  294  A    between atoms: _729  and  _731
REMARK  295  A    between atoms: _731  and  _732
REMARK  296  A    between atoms: _731  and  _734
REMARK  297  A    between atoms: _734  and  _735
REMARK  298  A    between atoms: _735  and  _736
REMARK  299  A    between atoms: _736  and  _737
REMARK  300  A    between atoms: _746  and  _748
REMARK  301  A    between atoms: _748  and  _749
REMARK  302  A    between atoms: _752  and  _754
REMARK  303  A    between atoms: _754  and  _755
REMARK  304  A    between atoms: _754  and  _757
REMARK  305  A    between atoms: _757  and  _758
REMARK  306  A    between atoms: _763  and  _764
REMARK  307  A    between atoms: _766  and  _768
REMARK  308  A    between atoms: _768  and  _769
REMARK  309  A    between atoms: _768  and  _771
REMARK  310  A    between atoms: _771  and  _772
REMARK  311  A    between atoms: _775  and  _777
REMARK  312  A    between atoms: _777  and  _778
REMARK  313  A    between atoms: _777  and  _780
REMARK  314  A    between atoms: _780  and  _781
REMARK  315  A    between atoms: _784  and  _786
REMARK  316  A    between atoms: _786  and  _787
REMARK  317  A    between atoms: _786  and  _789
REMARK  318  A    between atoms: _789  and  _790
REMARK  319  A    between atoms: _791  and  _793
REMARK  320  A    between atoms: _793  and  _794
REMARK  321  A    between atoms: _793  and  _796
REMARK  322  A    between atoms: _799  and  _801
REMARK  323  A    between atoms: _801  and  _802
REMARK  324  A    between atoms: _801  and  _804
REMARK  325  A    between atoms: _804  and  _805
REMARK  326  A    between atoms: _805  and  _806
REMARK  327  A    between atoms: _809  and  _811
REMARK  328  A    between atoms: _811  and  _812
REMARK  329  A    between atoms: _811  and  _814
REMARK  330  A    between atoms: _814  and  _815
REMARK  331  A    between atoms: _825  and  _827
REMARK  332  A    between atoms: _827  and  _828
REMARK  333  A    between atoms: _827  and  _830
REMARK  334  A    between atoms: _830  and  _831
REMARK  335  A    between atoms: _834  and  _836
REMARK  336  A    between atoms: _836  and  _837
REMARK  337  A    between atoms: _836  and  _839
REMARK  338  A    between atoms: _839  and  _840
REMARK  339  A    between atoms: _840  and  _841
REMARK  340  A    between atoms: _841  and  _842
REMARK  341  A    between atoms: _851  and  _853
REMARK  342  A    between atoms: _853  and  _854
REMARK  343  A    between atoms: _853  and  _856
REMARK  344  A    between atoms: _856  and  _857
REMARK  345  A    between atoms: _862  and  _863
REMARK                            x       y       z     vdW  Elec       q    Type
REMARK                         _______ _______ _______ _____ _____    ______ ____
ROOT
ATOM      1  O   HOH     1      43.187  57.452  -9.095  0.00  0.00    +0.000 OA
ENDROOT
TORSDOF 0
REMARK  Name = ../refined-set-2016/1fzj/1fzj_pocket.pdb
REMARK  345 active torsions:
REMARK  status: ('A' for Active; 'I' for Inactive)
REMARK    1  A    between atoms: _1  and  _3
REMARK    2  A    between atoms: _3  and  _4
REMARK    3  A    between atoms: _3  and  _6
REMARK    4  A    between atoms: _6  and  _7
REMARK    5  A    between atoms: _10  and  _12
REMARK    6  A    between atoms: _12  and  _13
REMARK    7  A    between atoms: _12  and  _15
REMARK    8  A    between atoms: _15  and  _16
REMARK    9  A    between atoms: _16  and  _17
REMARK   10  A    between atoms: _17  and  _18
REMARK   11  A    between atoms: _27  and  _29
REMARK   12  A    between atoms: _29  and  _30
REMARK   13  A    between atoms: _29  and  _32
REMARK   14  A    between atoms: _32  and  _33
REMARK   15  A    between atoms: _38  and  _39
REMARK   16  A    between atoms: _41  and  _43
REMARK   17  A    between atoms: _43  and  _44
REMARK   18  A    between atoms: _43  and  _46
REMARK   19  A    between atoms: _46  and  _47
REMARK   20  A    between atoms: _53  and  _55
REMARK   21  A    between atoms: _55  and  _56
REMARK   22  A    between atoms: _55  and  _58
REMARK   23  A    between atoms: _61  and  _63
REMARK   24  A    between atoms: _63  and  _64
REMARK   25  A    between atoms: _63  and  _66
REMARK   26  A    between atoms: _66  and  _67
REMARK   27  A    between atoms: _70  and  _72
REMARK   28  A    between atoms: _72  and  _73
REMARK   29  A    between atoms: _72  and  _75
REMARK   30  A    between atoms: _75  and  _76
REMARK   31  A    between atoms: _81  and  _82
REMARK   32  A    between atoms: _84  and  _86
REMARK   33  A    between atoms: _86  and  _87
REMARK   34  A    between atoms: _86  and  _89
REMARK   35  A    between atoms: _89  and  _90
REMARK   36  A    between atoms: _90  and  _91
REMARK   37  A    between atoms: _93  and  _95
REMARK   38  A    between atoms: _95  and  _96
REMARK   39  A    between atoms: _95  and  _98
REMARK   40  A    between atoms: _98  and  _99
REMARK   41  A    between atoms: _99  and  _100
REMARK   42  A    between atoms: _103  and  _105
REMARK   43  A    between atoms: _105  and  _106
REMARK   44  A    between atoms: _105  and  _108
REMARK   45  A    between atoms: _111  and  _113
REMARK   46  A    between atoms: _113  and  _114
REMARK   47  A    between atoms: _113  and  _116
REMARK   48  A    between atoms: _119  and  _121
REMARK   49  A    between atoms: _121  and  _122
REMARK   50  A    between atoms: _121  and  _124
REMARK   51  A    between atoms: _124  and  _125
REMARK   52  A    between atoms: _131  and  _133
REMARK   53  A    between atoms: _133  and  _134
REMARK   54  A    between atoms: _133  and  _136
REMARK   55  A    between atoms: _139  and  _141
REMARK   56  A    between atoms: _141  and  _142
REMARK   57  A    between atoms: _141  and  _144
REMARK   58  A    between atoms: _144  and  _145
REMARK   59  A    between atoms: _150  and  _151
REMARK   60  A    between atoms: _153  and  _155
REMARK   61  A    between atoms: _155  and  _156
REMARK   62  A    between atoms: _155  and  _158
REMARK   63  A    between atoms: _158  and  _159
REMARK   64  A    between atoms: _159  and  _160
REMARK   65  A    between atoms: _162  and  _164
REMARK   66  A    between atoms: _164  and  _165
REMARK   67  A    between atoms: _164  and  _167
REMARK   68  A    between atoms: _167  and  _168
REMARK   69  A    between atoms: _168  and  _169
REMARK   70  A    between atoms: _172  and  _174
REMARK   71  A    between atoms: _174  and  _175
REMARK   72  A    between atoms: _174  and  _177
REMARK   73  A    between atoms: _177  and  _178
REMARK   74  A    between atoms: _178  and  _179
REMARK   75  A    between atoms: _182  and  _184
REMARK   76  A    between atoms: _184  and  _185
REMARK   77  A    between atoms: _184  and  _187
REMARK   78  A    between atoms: _187  and  _188
REMARK   79  A    between atoms: _193  and  _194
REMARK   80  A    between atoms: _196  and  _198
REMARK   81  A    between atoms: _198  and  _199
REMARK   82  A    between atoms: _198  and  _201
REMARK   83  A    between atoms: _201  and  _202
REMARK   84  A    between atoms: _212  and  _214
REMARK   85  A    between atoms: _214  and  _215
REMARK   86  A    between atoms: _214  and  _217
REMARK   87  A    between atoms: _217  and  _218
REMARK   88  A    between atoms: _218  and  _219
REMARK   89  A    between atoms: _222  and  _224
REMARK   90  A    between atoms: _224  and  _225
REMARK   91  A    between atoms: _224  and  _227
REMARK   92  A    between atoms: _227  and  _228
REMARK   93  A    between atoms: _228  and  _229
REMARK   94  A    between atoms: _229  and  _230
REMARK   95  A    between atoms: _239  and  _241
REMARK   96  A    between atoms: _241  and  _242
REMARK   97  A    between atoms: _241  and  _244
REMARK   98  A    between atoms: _244  and  _245
REMARK   99  A    between atoms: _245  and  _246
REMARK  100  A    between atoms: _249  and  _251
REMARK  101  A    between atoms: _251  and  _252
REMARK  102  A    between atoms: _251  and  _254
REMARK  103  A    between atoms: _254  and  _255
REMARK  104  A    between atoms: _258  and  _260
REMARK  105  A    between atoms: _260  and  _261
REMARK  106  A    between atoms: _260  and  _263
REMARK  107  A    between atoms: _263  and  _264
REMARK  108  A    between atoms: _264  and  _265
REMARK  109  A    between atoms: _270  and  _272
REMARK  110  A    between atoms: _272  and  _273
REMARK  111  A    between atoms: _272  and  _275
REMARK  112  A    between atoms: _275  and  _276
REMARK  113  A    between atoms: _276  and  _277
REMARK  114  A    between atoms: _277  and  _278
REMARK  115  A    between atoms: _278  and  _279
REMARK  116  A    between atoms: _283  and  _285
REMARK  117  A    between atoms: _285  and  _286
REMARK  118  A    between atoms: _289  and  _291
REMARK  119  A    between atoms: _291  and  _292
REMARK  120  A    between atoms: _294  and  _296
REMARK  121  A    between atoms: _296  and  _297
REMARK  122  A    between atoms: _296  and  _299
REMARK  123  A    between atoms: _299  and  _300
REMARK  124  A    between atoms: _305  and  _307
REMARK  125  A    between atoms: _307  and  _308
REMARK  126  A    between atoms: _307  and  _310
REMARK  127  A    between atoms: _310  and  _311
REMARK  128  A    between atoms: _311  and  _312
REMARK  129  A    between atoms: _315  and  _317
REMARK  130  A    between atoms: _317  and  _318
REMARK  131  A    between atoms: _317  and  _320
REMARK  132  A    between atoms: _320  and  _321
REMARK  133  A    between atoms: _323  and  _325
REMARK  134  A    between atoms: _325  and  _326
REMARK  135  A    between atoms: _325  and  _328
REMARK  136  A    between atoms: _328  and  _329
REMARK  137  A    between atoms: _335  and  _337
REMARK  138  A    between atoms: _337  and  _338
REMARK  139  A    between atoms: _337  and  _340
REMARK  140  A    between atoms: _343  and  _345
REMARK  141  A    between atoms: _345  and  _346
REMARK  142  A    between atoms: _345  and  _348
REMARK  143  A    between atoms: _348  and  _349
REMARK  144  A    between atoms: _352  and  _354
REMARK  145  A    between atoms: _354  and  _355
REMARK  146  A    between atoms: _354  and  _357
REMARK  147  A    between atoms: _357  and  _358
REMARK  148  A    between atoms: _361  and  _363
REMARK  149  A    between atoms: _363  and  _364
REMARK  150  A    between atoms: _363  and  _366
REMARK  151  A    between atoms: _366  and  _367
REMARK  152  A    between atoms: _370  and  _372
REMARK  153  A    between atoms: _372  and  _373
REMARK  154  A    between atoms: _372  and  _375
REMARK  155  A    between atoms: _375  and  _376
REMARK  156  A    between atoms: _379  and  _381
REMARK  157  A    between atoms: _381  and  _382
REMARK  158  A    between atoms: _381  and  _384
REMARK  159  A    between atoms: _384  and  _385
REMARK  160  A    between atoms: _390  and  _391
REMARK  161  A    between atoms: _393  and  _395
REMARK  162  A    between atoms: _395  and  _396
REMARK  163  A    between atoms: _395  and  _398
REMARK  164  A    between atoms: _398  and  _399
REMARK  165  A    between atoms: _404  and  _405
REMARK  166  A    between atoms: _407  and  _409
REMARK  167  A    between atoms: _409  and  _410
REMARK  168  A    between atoms: _409  and  _412
REMARK  169  A    between atoms: _412  and  _413
REMARK  170  A    between atoms: _416  and  _418
REMARK  171  A    between atoms: _418  and  _419
REMARK  172  A    between atoms: _418  and  _421
REMARK  173  A    between atoms: _421  and  _422
REMARK  174  A    between atoms: _422  and  _423
REMARK  175  A    between atoms: _428  and  _430
REMARK  176  A    between atoms: _430  and  _431
REMARK  177  A    between atoms: _430  and  _433
REMARK  178  A    between atoms: _436  and  _438
REMARK  179  A    between atoms: _438  and  _439
REMARK  180  A    between atoms: _438  and  _441
REMARK  181  A    between atoms: _441  and  _442
REMARK  182  A    between atoms: _445  and  _447
REMARK  183  A    between atoms: _447  and  _448
REMARK  184  A    between atoms: _447  and  _450
REMARK  185  A    between atoms: _450  and  _451
REMARK  186  A    between atoms: _453  and  _455
REMARK  187  A    between atoms: _455  and  _456
REMARK  188  A    between atoms: _458  and  _460
REMARK  189  A    between atoms: _460  and  _461
REMARK  190  A    between atoms: _460  and  _463
REMARK  191  A    between atoms: _463  and  _464
REMARK  192  A    between atoms: _464  and  _790
REMARK  193  A    between atoms: _465  and  _467
REMARK  194  A    between atoms: _467  and  _468
REMARK  195  A    between atoms: _467  and  _470
REMARK  196  A    between atoms: _470  and  _471
REMARK  197  A    between atoms: _476  and  _477
REMARK  198  A    between atoms: _479  and  _481
REMARK  199  A    between atoms: _481  and  _482
REMARK  200  A    between atoms: _481  and  _484
REMARK  201  A    between atoms: _484  and  _485
REMARK  202  A    between atoms: _485  and  _486
REMARK  203  A    between atoms: _491  and  _493
REMARK  204  A    between atoms: _493  and  _494
REMARK  205  A    between atoms: _493  and  _496
REMARK  206  A    between atoms: _496  and  _497
REMARK  207  A    between atoms: _497  and  _498
REMARK  208  A    between atoms: _503  and  _505
REMARK  209  A    between atoms: _505  and  _506
REMARK  210  A    between atoms: _505  and  _508
REMARK  211  A    between atoms: _508  and  _509
REMARK  212  A    between atoms: _514  and  _515
REMARK  213  A    between atoms: _517  and  _519
REMARK  214  A    between atoms: _519  and  _520
REMARK  215  A    between atoms: _523  and  _525
REMARK  216  A    between atoms: _525  and  _526
REMARK  217  A    between atoms: _525  and  _528
REMARK  218  A    between atoms: _528  and  _529
REMARK  219  A    between atoms: _534  and  _535
REMARK  220  A    between atoms: _537  and  _539
REMARK  221  A    between atoms: _539  and  _540
REMARK  222  A    between atoms: _539  and  _542
REMARK  223  A    between atoms: _542  and  _543
REMARK  224  A    between atoms: _548  and  _549
REMARK  225  A    between atoms: _551  and  _553
REMARK  226  A    between atoms: _553  and  _554
REMARK  227  A    between atoms: _553  and  _556
REMARK  228  A    between atoms: _556  and  _557
REMARK  229  A    between atoms: _560  and  _562
REMARK  230  A    between atoms: _562  and  _563
REMARK  231  A    between atoms: _562  and  _565
REMARK  232  A    between atoms: _565  and  _566
REMARK  233  A    between atoms: _576  and  _578
REMARK  234  A    between atoms: _578  and  _579
REMARK  235  A    between atoms: _582  and  _584
REMARK  236  A    between atoms: _584  and  _585
REMARK  237  A    between atoms: _588  and  _590
REMARK  238  A    between atoms: _590  and  _591
REMARK  239  A    between atoms: _590  and  _593
REMARK  240  A    between atoms: _593  and  _594
REMARK  241  A    between atoms: _597  and  _599
REMARK  242  A    between atoms: _599  and  _600
REMARK  243  A    between atoms: _599  and  _602
REMARK  244  A    between atoms: _602  and  _603
REMARK  245  A    between atoms: _606  and  _608
REMARK  246  A    between atoms: _608  and  _609
REMARK  247  A    between atoms: _608  and  _611
REMARK  248  A    between atoms: _611  and  _612
REMARK  249  A    between atoms: _615  and  _617
REMARK  250  A    between atoms: _617  and  _618
REMARK  251  A    between atoms: _617  and  _620
REMARK  252  A    between atoms: _620  and  _621
REMARK  253  A    between atoms: _621  and  _622
REMARK  254  A    between atoms: _622  and  _623
REMARK  255  A    between atoms: _623  and  _624
REMARK  256  A    between atoms: _628  and  _630
REMARK  257  A    between atoms: _630  and  _631
REMARK  258  A    between atoms: _630  and  _633
REMARK  259  A    between atoms: _633  and  _634
REMARK  260  A    between atoms: _639  and  _641
REMARK  261  A    between atoms: _641  and  _642
REMARK  262  A    between atoms: _641  and  _644
REMARK  263  A    between atoms: _644  and  _645
REMARK  264  A    between atoms: _645  and  _646
REMARK  265  A    between atoms: _646  and  _647
REMARK  266  A    between atoms: _647  and  _648
REMARK  267  A    between atoms: _652  and  _654
REMARK  268  A    between atoms: _654  and  _655
REMARK  269  A    between atoms: _654  and  _657
REMARK  270  A    between atoms: _657  and  _658
REMARK  271  A    between atoms: _668  and  _670
REMARK  272  A    between atoms: _670  and  _671
REMARK  273  A    between atoms: _674  and  _676
REMARK  274  A    between atoms: _676  and  _677
REMARK  275  A    between atoms: _679  and  _681
REMARK  276  A    between atoms: _681  and  _682
REMARK  277  A    between atoms: _685  and  _687
REMARK  278  A    between atoms: _687  and  _688
REMARK  279  A    between atoms: _691  and  _693
REMARK  280  A    between atoms: _693  and  _694
REMARK  281  A    between atoms: _693  and  _696
REMARK  282  A    between atoms: _696  and  _697
REMARK  283  A    between atoms: _697  and  _698
REMARK  284  A    between atoms: _701  and  _703
REMARK  285  A    between atoms: _703  and  _704
REMARK  286  A    between atoms: _703  and  _706
REMARK  287  A    between atoms: _706  and  _707
REMARK  288  A    between atoms: _712  and  _713
REMARK  289  A    between atoms: _715  and  _717
REMARK  290  A    between atoms: _717  and  _718
REMARK  291  A    between atoms: _717  and  _720
REMARK  292  A    between atoms: _720  and  _721
REMARK  293  A    between atoms: _726  and  _727
REMARK  294  A    between atoms: _729  and  _731
REMARK  295  A    between atoms: _731  and  _732
REMARK  296  A    between atoms: _731  and  _734
REMARK  297  A    between atoms: _734  and  _735
REMARK  298  A    between atoms: _735  and  _736
REMARK  299  A    between atoms: _736  and  _737
REMARK  300  A    between atoms: _746  and  _748
REMARK  301  A    between atoms: _748  and  _749
REMARK  302  A    between atoms: _752  and  _754
REMARK  303  A    between atoms: _754  and  _755
REMARK  304  A    between atoms: _754  and  _757
REMARK  305  A    between atoms: _757  and  _758
REMARK  306  A    between atoms: _763  and  _764
REMARK  307  A    between atoms: _766  and  _768
REMARK  308  A    between atoms: _768  and  _769
REMARK  309  A    between atoms: _768  and  _771
REMARK  310  A    between atoms: _771  and  _772
REMARK  311  A    between atoms: _775  and  _777
REMARK  312  A    between atoms: _777  and  _778
REMARK  313  A    between atoms: _777  and  _780
REMARK  314  A    between atoms: _780  and  _781
REMARK  315  A    between atoms: _784  and  _786
REMARK  316  A    between atoms: _786  and  _787
REMARK  317  A    between atoms: _786  and  _789
REMARK  318  A    between atoms: _789  and  _790
REMARK  319  A    between atoms: _791  and  _793
REMARK  320  A    between atoms: _793  and  _794
REMARK  321  A    between atoms: _793  and  _796
REMARK  322  A    between atoms: _799  and  _801
REMARK  323  A    between atoms: _801  and  _802
REMARK  324  A    between atoms: _801  and  _804
REMARK  325  A    between atoms: _804  and  _805
REMARK  326  A    between atoms: _805  and  _806
REMARK  327  A    between atoms: _809  and  _811
REMARK  328  A    between atoms: _811  and  _812
REMARK  329  A    between atoms: _811  and  _814
REMARK  330  A    between atoms: _814  and  _815
REMARK  331  A    between atoms: _825  and  _827
REMARK  332  A    between atoms: _827  and  _828
REMARK  333  A    between atoms: _827  and  _830
REMARK  334  A    between atoms: _830  and  _831
REMARK  335  A    between atoms: _834  and  _836
REMARK  336  A    between atoms: _836  and  _837
REMARK  337  A    between atoms: _836  and  _839
REMARK  338  A    between atoms: _839  and  _840
REMARK  339  A    between atoms: _840  and  _841
REMARK  340  A    between atoms: _841  and  _842
REMARK  341  A    between atoms: _851  and  _853
REMARK  342  A    between atoms: _853  and  _854
REMARK  343  A    between atoms: _853  and  _856
REMARK  344  A    between atoms: _856  and  _857
REMARK  345  A    between atoms: _862  and  _863
REMARK                            x       y       z     vdW  Elec       q    Type
REMARK                         _______ _______ _______ _____ _____    ______ ____
ROOT
ATOM      1  O   HOH     1      44.535  51.376  -4.246  0.00  0.00    +0.000 OA
ENDROOT
TORSDOF 0
REMARK  Name = ../refined-set-2016/1fzj/1fzj_pocket.pdb
REMARK  345 active torsions:
REMARK  status: ('A' for Active; 'I' for Inactive)
REMARK    1  A    between atoms: _1  and  _3
REMARK    2  A    between atoms: _3  and  _4
REMARK    3  A    between atoms: _3  and  _6
REMARK    4  A    between atoms: _6  and  _7
REMARK    5  A    between atoms: _10  and  _12
REMARK    6  A    between atoms: _12  and  _13
REMARK    7  A    between atoms: _12  and  _15
REMARK    8  A    between atoms: _15  and  _16
REMARK    9  A    between atoms: _16  and  _17
REMARK   10  A    between atoms: _17  and  _18
REMARK   11  A    between atoms: _27  and  _29
REMARK   12  A    between atoms: _29  and  _30
REMARK   13  A    between atoms: _29  and  _32
REMARK   14  A    between atoms: _32  and  _33
REMARK   15  A    between atoms: _38  and  _39
REMARK   16  A    between atoms: _41  and  _43
REMARK   17  A    between atoms: _43  and  _44
REMARK   18  A    between atoms: _43  and  _46
REMARK   19  A    between atoms: _46  and  _47
REMARK   20  A    between atoms: _53  and  _55
REMARK   21  A    between atoms: _55  and  _56
REMARK   22  A    between atoms: _55  and  _58
REMARK   23  A    between atoms: _61  and  _63
REMARK   24  A    between atoms: _63  and  _64
REMARK   25  A    between atoms: _63  and  _66
REMARK   26  A    between atoms: _66  and  _67
REMARK   27  A    between atoms: _70  and  _72
REMARK   28  A    between atoms: _72  and  _73
REMARK   29  A    between atoms: _72  and  _75
REMARK   30  A    between atoms: _75  and  _76
REMARK   31  A    between atoms: _81  and  _82
REMARK   32  A    between atoms: _84  and  _86
REMARK   33  A    between atoms: _86  and  _87
REMARK   34  A    between atoms: _86  and  _89
REMARK   35  A    between atoms: _89  and  _90
REMARK   36  A    between atoms: _90  and  _91
REMARK   37  A    between atoms: _93  and  _95
REMARK   38  A    between atoms: _95  and  _96
REMARK   39  A    between atoms: _95  and  _98
REMARK   40  A    between atoms: _98  and  _99
REMARK   41  A    between atoms: _99  and  _100
REMARK   42  A    between atoms: _103  and  _105
REMARK   43  A    between atoms: _105  and  _106
REMARK   44  A    between atoms: _105  and  _108
REMARK   45  A    between atoms: _111  and  _113
REMARK   46  A    between atoms: _113  and  _114
REMARK   47  A    between atoms: _113  and  _116
REMARK   48  A    between atoms: _119  and  _121
REMARK   49  A    between atoms: _121  and  _122
REMARK   50  A    between atoms: _121  and  _124
REMARK   51  A    between atoms: _124  and  _125
REMARK   52  A    between atoms: _131  and  _133
REMARK   53  A    between atoms: _133  and  _134
REMARK   54  A    between atoms: _133  and  _136
REMARK   55  A    between atoms: _139  and  _141
REMARK   56  A    between atoms: _141  and  _142
REMARK   57  A    between atoms: _141  and  _144
REMARK   58  A    between atoms: _144  and  _145
REMARK   59  A    between atoms: _150  and  _151
REMARK   60  A    between atoms: _153  and  _155
REMARK   61  A    between atoms: _155  and  _156
REMARK   62  A    between atoms: _155  and  _158
REMARK   63  A    between atoms: _158  and  _159
REMARK   64  A    between atoms: _159  and  _160
REMARK   65  A    between atoms: _162  and  _164
REMARK   66  A    between atoms: _164  and  _165
REMARK   67  A    between atoms: _164  and  _167
REMARK   68  A    between atoms: _167  and  _168
REMARK   69  A    between atoms: _168  and  _169
REMARK   70  A    between atoms: _172  and  _174
REMARK   71  A    between atoms: _174  and  _175
REMARK   72  A    between atoms: _174  and  _177
REMARK   73  A    between atoms: _177  and  _178
REMARK   74  A    between atoms: _178  and  _179
REMARK   75  A    between atoms: _182  and  _184
REMARK   76  A    between atoms: _184  and  _185
REMARK   77  A    between atoms: _184  and  _187
REMARK   78  A    between atoms: _187  and  _188
REMARK   79  A    between atoms: _193  and  _194
REMARK   80  A    between atoms: _196  and  _198
REMARK   81  A    between atoms: _198  and  _199
REMARK   82  A    between atoms: _198  and  _201
REMARK   83  A    between atoms: _201  and  _202
REMARK   84  A    between atoms: _212  and  _214
REMARK   85  A    between atoms: _214  and  _215
REMARK   86  A    between atoms: _214  and  _217
REMARK   87  A    between atoms: _217  and  _218
REMARK   88  A    between atoms: _218  and  _219
REMARK   89  A    between atoms: _222  and  _224
REMARK   90  A    between atoms: _224  and  _225
REMARK   91  A    between atoms: _224  and  _227
REMARK   92  A    between atoms: _227  and  _228
REMARK   93  A    between atoms: _228  and  _229
REMARK   94  A    between atoms: _229  and  _230
REMARK   95  A    between atoms: _239  and  _241
REMARK   96  A    between atoms: _241  and  _242
REMARK   97  A    between atoms: _241  and  _244
REMARK   98  A    between atoms: _244  and  _245
REMARK   99  A    between atoms: _245  and  _246
REMARK  100  A    between atoms: _249  and  _251
REMARK  101  A    between atoms: _251  and  _252
REMARK  102  A    between atoms: _251  and  _254
REMARK  103  A    between atoms: _254  and  _255
REMARK  104  A    between atoms: _258  and  _260
REMARK  105  A    between atoms: _260  and  _261
REMARK  106  A    between atoms: _260  and  _263
REMARK  107  A    between atoms: _263  and  _264
REMARK  108  A    between atoms: _264  and  _265
REMARK  109  A    between atoms: _270  and  _272
REMARK  110  A    between atoms: _272  and  _273
REMARK  111  A    between atoms: _272  and  _275
REMARK  112  A    between atoms: _275  and  _276
REMARK  113  A    between atoms: _276  and  _277
REMARK  114  A    between atoms: _277  and  _278
REMARK  115  A    between atoms: _278  and  _279
REMARK  116  A    between atoms: _283  and  _285
REMARK  117  A    between atoms: _285  and  _286
REMARK  118  A    between atoms: _289  and  _291
REMARK  119  A    between atoms: _291  and  _292
REMARK  120  A    between atoms: _294  and  _296
REMARK  121  A    between atoms: _296  and  _297
REMARK  122  A    between atoms: _296  and  _299
REMARK  123  A    between atoms: _299  and  _300
REMARK  124  A    between atoms: _305  and  _307
REMARK  125  A    between atoms: _307  and  _308
REMARK  126  A    between atoms: _307  and  _310
REMARK  127  A    between atoms: _310  and  _311
REMARK  128  A    between atoms: _311  and  _312
REMARK  129  A    between atoms: _315  and  _317
REMARK  130  A    between atoms: _317  and  _318
REMARK  131  A    between atoms: _317  and  _320
REMARK  132  A    between atoms: _320  and  _321
REMARK  133  A    between atoms: _323  and  _325
REMARK  134  A    between atoms: _325  and  _326
REMARK  135  A    between atoms: _325  and  _328
REMARK  136  A    between atoms: _328  and  _329
REMARK  137  A    between atoms: _335  and  _337
REMARK  138  A    between atoms: _337  and  _338
REMARK  139  A    between atoms: _337  and  _340
REMARK  140  A    between atoms: _343  and  _345
REMARK  141  A    between atoms: _345  and  _346
REMARK  142  A    between atoms: _345  and  _348
REMARK  143  A    between atoms: _348  and  _349
REMARK  144  A    between atoms: _352  and  _354
REMARK  145  A    between atoms: _354  and  _355
REMARK  146  A    between atoms: _354  and  _357
REMARK  147  A    between atoms: _357  and  _358
REMARK  148  A    between atoms: _361  and  _363
REMARK  149  A    between atoms: _363  and  _364
REMARK  150  A    between atoms: _363  and  _366
REMARK  151  A    between atoms: _366  and  _367
REMARK  152  A    between atoms: _370  and  _372
REMARK  153  A    between atoms: _372  and  _373
REMARK  154  A    between atoms: _372  and  _375
REMARK  155  A    between atoms: _375  and  _376
REMARK  156  A    between atoms: _379  and  _381
REMARK  157  A    between atoms: _381  and  _382
REMARK  158  A    between atoms: _381  and  _384
REMARK  159  A    between atoms: _384  and  _385
REMARK  160  A    between atoms: _390  and  _391
REMARK  161  A    between atoms: _393  and  _395
REMARK  162  A    between atoms: _395  and  _396
REMARK  163  A    between atoms: _395  and  _398
REMARK  164  A    between atoms: _398  and  _399
REMARK  165  A    between atoms: _404  and  _405
REMARK  166  A    between atoms: _407  and  _409
REMARK  167  A    between atoms: _409  and  _410
REMARK  168  A    between atoms: _409  and  _412
REMARK  169  A    between atoms: _412  and  _413
REMARK  170  A    between atoms: _416  and  _418
REMARK  171  A    between atoms: _418  and  _419
REMARK  172  A    between atoms: _418  and  _421
REMARK  173  A    between atoms: _421  and  _422
REMARK  174  A    between atoms: _422  and  _423
REMARK  175  A    between atoms: _428  and  _430
REMARK  176  A    between atoms: _430  and  _431
REMARK  177  A    between atoms: _430  and  _433
REMARK  178  A    between atoms: _436  and  _438
REMARK  179  A    between atoms: _438  and  _439
REMARK  180  A    between atoms: _438  and  _441
REMARK  181  A    between atoms: _441  and  _442
REMARK  182  A    between atoms: _445  and  _447
REMARK  183  A    between atoms: _447  and  _448
REMARK  184  A    between atoms: _447  and  _450
REMARK  185  A    between atoms: _450  and  _451
REMARK  186  A    between atoms: _453  and  _455
REMARK  187  A    between atoms: _455  and  _456
REMARK  188  A    between atoms: _458  and  _460
REMARK  189  A    between atoms: _460  and  _461
REMARK  190  A    between atoms: _460  and  _463
REMARK  191  A    between atoms: _463  and  _464
REMARK  192  A    between atoms: _464  and  _790
REMARK  193  A    between atoms: _465  and  _467
REMARK  194  A    between atoms: _467  and  _468
REMARK  195  A    between atoms: _467  and  _470
REMARK  196  A    between atoms: _470  and  _471
REMARK  197  A    between atoms: _476  and  _477
REMARK  198  A    between atoms: _479  and  _481
REMARK  199  A    between atoms: _481  and  _482
REMARK  200  A    between atoms: _481  and  _484
REMARK  201  A    between atoms: _484  and  _485
REMARK  202  A    between atoms: _485  and  _486
REMARK  203  A    between atoms: _491  and  _493
REMARK  204  A    between atoms: _493  and  _494
REMARK  205  A    between atoms: _493  and  _496
REMARK  206  A    between atoms: _496  and  _497
REMARK  207  A    between atoms: _497  and  _498
REMARK  208  A    between atoms: _503  and  _505
REMARK  209  A    between atoms: _505  and  _506
REMARK  210  A    between atoms: _505  and  _508
REMARK  211  A    between atoms: _508  and  _509
REMARK  212  A    between atoms: _514  and  _515
REMARK  213  A    between atoms: _517  and  _519
REMARK  214  A    between atoms: _519  and  _520
REMARK  215  A    between atoms: _523  and  _525
REMARK  216  A    between atoms: _525  and  _526
REMARK  217  A    between atoms: _525  and  _528
REMARK  218  A    between atoms: _528  and  _529
REMARK  219  A    between atoms: _534  and  _535
REMARK  220  A    between atoms: _537  and  _539
REMARK  221  A    between atoms: _539  and  _540
REMARK  222  A    between atoms: _539  and  _542
REMARK  223  A    between atoms: _542  and  _543
REMARK  224  A    between atoms: _548  and  _549
REMARK  225  A    between atoms: _551  and  _553
REMARK  226  A    between atoms: _553  and  _554
REMARK  227  A    between atoms: _553  and  _556
REMARK  228  A    between atoms: _556  and  _557
REMARK  229  A    between atoms: _560  and  _562
REMARK  230  A    between atoms: _562  and  _563
REMARK  231  A    between atoms: _562  and  _565
REMARK  232  A    between atoms: _565  and  _566
REMARK  233  A    between atoms: _576  and  _578
REMARK  234  A    between atoms: _578  and  _579
REMARK  235  A    between atoms: _582  and  _584
REMARK  236  A    between atoms: _584  and  _585
REMARK  237  A    between atoms: _588  and  _590
REMARK  238  A    between atoms: _590  and  _591
REMARK  239  A    between atoms: _590  and  _593
REMARK  240  A    between atoms: _593  and  _594
REMARK  241  A    between atoms: _597  and  _599
REMARK  242  A    between atoms: _599  and  _600
REMARK  243  A    between atoms: _599  and  _602
REMARK  244  A    between atoms: _602  and  _603
REMARK  245  A    between atoms: _606  and  _608
REMARK  246  A    between atoms: _608  and  _609
REMARK  247  A    between atoms: _608  and  _611
REMARK  248  A    between atoms: _611  and  _612
REMARK  249  A    between atoms: _615  and  _617
REMARK  250  A    between atoms: _617  and  _618
REMARK  251  A    between atoms: _617  and  _620
REMARK  252  A    between atoms: _620  and  _621
REMARK  253  A    between atoms: _621  and  _622
REMARK  254  A    between atoms: _622  and  _623
REMARK  255  A    between atoms: _623  and  _624
REMARK  256  A    between atoms: _628  and  _630
REMARK  257  A    between atoms: _630  and  _631
REMARK  258  A    between atoms: _630  and  _633
REMARK  259  A    between atoms: _633  and  _634
REMARK  260  A    between atoms: _639  and  _641
REMARK  261  A    between atoms: _641  and  _642
REMARK  262  A    between atoms: _641  and  _644
REMARK  263  A    between atoms: _644  and  _645
REMARK  264  A    between atoms: _645  and  _646
REMARK  265  A    between atoms: _646  and  _647
REMARK  266  A    between atoms: _647  and  _648
REMARK  267  A    between atoms: _652  and  _654
REMARK  268  A    between atoms: _654  and  _655
REMARK  269  A    between atoms: _654  and  _657
REMARK  270  A    between atoms: _657  and  _658
REMARK  271  A    between atoms: _668  and  _670
REMARK  272  A    between atoms: _670  and  _671
REMARK  273  A    between atoms: _674  and  _676
REMARK  274  A    between atoms: _676  and  _677
REMARK  275  A    between atoms: _679  and  _681
REMARK  276  A    between atoms: _681  and  _682
REMARK  277  A    between atoms: _685  and  _687
REMARK  278  A    between atoms: _687  and  _688
REMARK  279  A    between atoms: _691  and  _693
REMARK  280  A    between atoms: _693  and  _694
REMARK  281  A    between atoms: _693  and  _696
REMARK  282  A    between atoms: _696  and  _697
REMARK  283  A    between atoms: _697  and  _698
REMARK  284  A    between atoms: _701  and  _703
REMARK  285  A    between atoms: _703  and  _704
REMARK  286  A    between atoms: _703  and  _706
REMARK  287  A    between atoms: _706  and  _707
REMARK  288  A    between atoms: _712  and  _713
REMARK  289  A    between atoms: _715  and  _717
REMARK  290  A    between atoms: _717  and  _718
REMARK  291  A    between atoms: _717  and  _720
REMARK  292  A    between atoms: _720  and  _721
REMARK  293  A    between atoms: _726  and  _727
REMARK  294  A    between atoms: _729  and  _731
REMARK  295  A    between atoms: _731  and  _732
REMARK  296  A    between atoms: _731  and  _734
REMARK  297  A    between atoms: _734  and  _735
REMARK  298  A    between atoms: _735  and  _736
REMARK  299  A    between atoms: _736  and  _737
REMARK  300  A    between atoms: _746  and  _748
REMARK  301  A    between atoms: _748  and  _749
REMARK  302  A    between atoms: _752  and  _754
REMARK  303  A    between atoms: _754  and  _755
REMARK  304  A    between atoms: _754  and  _757
REMARK  305  A    between atoms: _757  and  _758
REMARK  306  A    between atoms: _763  and  _764
REMARK  307  A    between atoms: _766  and  _768
REMARK  308  A    between atoms: _768  and  _769
REMARK  309  A    between atoms: _768  and  _771
REMARK  310  A    between atoms: _771  and  _772
REMARK  311  A    between atoms: _775  and  _777
REMARK  312  A    between atoms: _777  and  _778
REMARK  313  A    between atoms: _777  and  _780
REMARK  314  A    between atoms: _780  and  _781
REMARK  315  A    between atoms: _784  and  _786
REMARK  316  A    between atoms: _786  and  _787
REMARK  317  A    between atoms: _786  and  _789
REMARK  318  A    between atoms: _789  and  _790
REMARK  319  A    between atoms: _791  and  _793
REMARK  320  A    between atoms: _793  and  _794
REMARK  321  A    between atoms: _793  and  _796
REMARK  322  A    between atoms: _799  and  _801
REMARK  323  A    between atoms: _801  and  _802
REMARK  324  A    between atoms: _801  and  _804
REMARK  325  A    between atoms: _804  and  _805
REMARK  326  A    between atoms: _805  and  _806
REMARK  327  A    between atoms: _809  and  _811
REMARK  328  A    between atoms: _811  and  _812
REMARK  329  A    between atoms: _811  and  _814
REMARK  330  A    between atoms: _814  and  _815
REMARK  331  A    between atoms: _825  and  _827
REMARK  332  A    between atoms: _827  and  _828
REMARK  333  A    between atoms: _827  and  _830
REMARK  334  A    between atoms: _830  and  _831
REMARK  335  A    between atoms: _834  and  _836
REMARK  336  A    between atoms: _836  and  _837
REMARK  337  A    between atoms: _836  and  _839
REMARK  338  A    between atoms: _839  and  _840
REMARK  339  A    between atoms: _840  and  _841
REMARK  340  A    between atoms: _841  and  _842
REMARK  341  A    between atoms: _851  and  _853
REMARK  342  A    between atoms: _853  and  _854
REMARK  343  A    between atoms: _853  and  _856
REMARK  344  A    between atoms: _856  and  _857
REMARK  345  A    between atoms: _862  and  _863
REMARK                            x       y       z     vdW  Elec       q    Type
REMARK                         _______ _______ _______ _____ _____    ______ ____
ROOT
ATOM      1  O   HOH     1      40.739  63.968   4.652  0.00  0.00    +0.000 OA
ENDROOT
TORSDOF 0
REMARK  Name = ../refined-set-2016/1fzj/1fzj_pocket.pdb
REMARK  345 active torsions:
REMARK  status: ('A' for Active; 'I' for Inactive)
REMARK    1  A    between atoms: _1  and  _3
REMARK    2  A    between atoms: _3  and  _4
REMARK    3  A    between atoms: _3  and  _6
REMARK    4  A    between atoms: _6  and  _7
REMARK    5  A    between atoms: _10  and  _12
REMARK    6  A    between atoms: _12  and  _13
REMARK    7  A    between atoms: _12  and  _15
REMARK    8  A    between atoms: _15  and  _16
REMARK    9  A    between atoms: _16  and  _17
REMARK   10  A    between atoms: _17  and  _18
REMARK   11  A    between atoms: _27  and  _29
REMARK   12  A    between atoms: _29  and  _30
REMARK   13  A    between atoms: _29  and  _32
REMARK   14  A    between atoms: _32  and  _33
REMARK   15  A    between atoms: _38  and  _39
REMARK   16  A    between atoms: _41  and  _43
REMARK   17  A    between atoms: _43  and  _44
REMARK   18  A    between atoms: _43  and  _46
REMARK   19  A    between atoms: _46  and  _47
REMARK   20  A    between atoms: _53  and  _55
REMARK   21  A    between atoms: _55  and  _56
REMARK   22  A    between atoms: _55  and  _58
REMARK   23  A    between atoms: _61  and  _63
REMARK   24  A    between atoms: _63  and  _64
REMARK   25  A    between atoms: _63  and  _66
REMARK   26  A    between atoms: _66  and  _67
REMARK   27  A    between atoms: _70  and  _72
REMARK   28  A    between atoms: _72  and  _73
REMARK   29  A    between atoms: _72  and  _75
REMARK   30  A    between atoms: _75  and  _76
REMARK   31  A    between atoms: _81  and  _82
REMARK   32  A    between atoms: _84  and  _86
REMARK   33  A    between atoms: _86  and  _87
REMARK   34  A    between atoms: _86  and  _89
REMARK   35  A    between atoms: _89  and  _90
REMARK   36  A    between atoms: _90  and  _91
REMARK   37  A    between atoms: _93  and  _95
REMARK   38  A    between atoms: _95  and  _96
REMARK   39  A    between atoms: _95  and  _98
REMARK   40  A    between atoms: _98  and  _99
REMARK   41  A    between atoms: _99  and  _100
REMARK   42  A    between atoms: _103  and  _105
REMARK   43  A    between atoms: _105  and  _106
REMARK   44  A    between atoms: _105  and  _108
REMARK   45  A    between atoms: _111  and  _113
REMARK   46  A    between atoms: _113  and  _114
REMARK   47  A    between atoms: _113  and  _116
REMARK   48  A    between atoms: _119  and  _121
REMARK   49  A    between atoms: _121  and  _122
REMARK   50  A    between atoms: _121  and  _124
REMARK   51  A    between atoms: _124  and  _125
REMARK   52  A    between atoms: _131  and  _133
REMARK   53  A    between atoms: _133  and  _134
REMARK   54  A    between atoms: _133  and  _136
REMARK   55  A    between atoms: _139  and  _141
REMARK   56  A    between atoms: _141  and  _142
REMARK   57  A    between atoms: _141  and  _144
REMARK   58  A    between atoms: _144  and  _145
REMARK   59  A    between atoms: _150  and  _151
REMARK   60  A    between atoms: _153  and  _155
REMARK   61  A    between atoms: _155  and  _156
REMARK   62  A    between atoms: _155  and  _158
REMARK   63  A    between atoms: _158  and  _159
REMARK   64  A    between atoms: _159  and  _160
REMARK   65  A    between atoms: _162  and  _164
REMARK   66  A    between atoms: _164  and  _165
REMARK   67  A    between atoms: _164  and  _167
REMARK   68  A    between atoms: _167  and  _168
REMARK   69  A    between atoms: _168  and  _169
REMARK   70  A    between atoms: _172  and  _174
REMARK   71  A    between atoms: _174  and  _175
REMARK   72  A    between atoms: _174  and  _177
REMARK   73  A    between atoms: _177  and  _178
REMARK   74  A    between atoms: _178  and  _179
REMARK   75  A    between atoms: _182  and  _184
REMARK   76  A    between atoms: _184  and  _185
REMARK   77  A    between atoms: _184  and  _187
REMARK   78  A    between atoms: _187  and  _188
REMARK   79  A    between atoms: _193  and  _194
REMARK   80  A    between atoms: _196  and  _198
REMARK   81  A    between atoms: _198  and  _199
REMARK   82  A    between atoms: _198  and  _201
REMARK   83  A    between atoms: _201  and  _202
REMARK   84  A    between atoms: _212  and  _214
REMARK   85  A    between atoms: _214  and  _215
REMARK   86  A    between atoms: _214  and  _217
REMARK   87  A    between atoms: _217  and  _218
REMARK   88  A    between atoms: _218  and  _219
REMARK   89  A    between atoms: _222  and  _224
REMARK   90  A    between atoms: _224  and  _225
REMARK   91  A    between atoms: _224  and  _227
REMARK   92  A    between atoms: _227  and  _228
REMARK   93  A    between atoms: _228  and  _229
REMARK   94  A    between atoms: _229  and  _230
REMARK   95  A    between atoms: _239  and  _241
REMARK   96  A    between atoms: _241  and  _242
REMARK   97  A    between atoms: _241  and  _244
REMARK   98  A    between atoms: _244  and  _245
REMARK   99  A    between atoms: _245  and  _246
REMARK  100  A    between atoms: _249  and  _251
REMARK  101  A    between atoms: _251  and  _252
REMARK  102  A    between atoms: _251  and  _254
REMARK  103  A    between atoms: _254  and  _255
REMARK  104  A    between atoms: _258  and  _260
REMARK  105  A    between atoms: _260  and  _261
REMARK  106  A    between atoms: _260  and  _263
REMARK  107  A    between atoms: _263  and  _264
REMARK  108  A    between atoms: _264  and  _265
REMARK  109  A    between atoms: _270  and  _272
REMARK  110  A    between atoms: _272  and  _273
REMARK  111  A    between atoms: _272  and  _275
REMARK  112  A    between atoms: _275  and  _276
REMARK  113  A    between atoms: _276  and  _277
REMARK  114  A    between atoms: _277  and  _278
REMARK  115  A    between atoms: _278  and  _279
REMARK  116  A    between atoms: _283  and  _285
REMARK  117  A    between atoms: _285  and  _286
REMARK  118  A    between atoms: _289  and  _291
REMARK  119  A    between atoms: _291  and  _292
REMARK  120  A    between atoms: _294  and  _296
REMARK  121  A    between atoms: _296  and  _297
REMARK  122  A    between atoms: _296  and  _299
REMARK  123  A    between atoms: _299  and  _300
REMARK  124  A    between atoms: _305  and  _307
REMARK  125  A    between atoms: _307  and  _308
REMARK  126  A    between atoms: _307  and  _310
REMARK  127  A    between atoms: _310  and  _311
REMARK  128  A    between atoms: _311  and  _312
REMARK  129  A    between atoms: _315  and  _317
REMARK  130  A    between atoms: _317  and  _318
REMARK  131  A    between atoms: _317  and  _320
REMARK  132  A    between atoms: _320  and  _321
REMARK  133  A    between atoms: _323  and  _325
REMARK  134  A    between atoms: _325  and  _326
REMARK  135  A    between atoms: _325  and  _328
REMARK  136  A    between atoms: _328  and  _329
REMARK  137  A    between atoms: _335  and  _337
REMARK  138  A    between atoms: _337  and  _338
REMARK  139  A    between atoms: _337  and  _340
REMARK  140  A    between atoms: _343  and  _345
REMARK  141  A    between atoms: _345  and  _346
REMARK  142  A    between atoms: _345  and  _348
REMARK  143  A    between atoms: _348  and  _349
REMARK  144  A    between atoms: _352  and  _354
REMARK  145  A    between atoms: _354  and  _355
REMARK  146  A    between atoms: _354  and  _357
REMARK  147  A    between atoms: _357  and  _358
REMARK  148  A    between atoms: _361  and  _363
REMARK  149  A    between atoms: _363  and  _364
REMARK  150  A    between atoms: _363  and  _366
REMARK  151  A    between atoms: _366  and  _367
REMARK  152  A    between atoms: _370  and  _372
REMARK  153  A    between atoms: _372  and  _373
REMARK  154  A    between atoms: _372  and  _375
REMARK  155  A    between atoms: _375  and  _376
REMARK  156  A    between atoms: _379  and  _381
REMARK  157  A    between atoms: _381  and  _382
REMARK  158  A    between atoms: _381  and  _384
REMARK  159  A    between atoms: _384  and  _385
REMARK  160  A    between atoms: _390  and  _391
REMARK  161  A    between atoms: _393  and  _395
REMARK  162  A    between atoms: _395  and  _396
REMARK  163  A    between atoms: _395  and  _398
REMARK  164  A    between atoms: _398  and  _399
REMARK  165  A    between atoms: _404  and  _405
REMARK  166  A    between atoms: _407  and  _409
REMARK  167  A    between atoms: _409  and  _410
REMARK  168  A    between atoms: _409  and  _412
REMARK  169  A    between atoms: _412  and  _413
REMARK  170  A    between atoms: _416  and  _418
REMARK  171  A    between atoms: _418  and  _419
REMARK  172  A    between atoms: _418  and  _421
REMARK  173  A    between atoms: _421  and  _422
REMARK  174  A    between atoms: _422  and  _423
REMARK  175  A    between atoms: _428  and  _430
REMARK  176  A    between atoms: _430  and  _431
REMARK  177  A    between atoms: _430  and  _433
REMARK  178  A    between atoms: _436  and  _438
REMARK  179  A    between atoms: _438  and  _439
REMARK  180  A    between atoms: _438  and  _441
REMARK  181  A    between atoms: _441  and  _442
REMARK  182  A    between atoms: _445  and  _447
REMARK  183  A    between atoms: _447  and  _448
REMARK  184  A    between atoms: _447  and  _450
REMARK  185  A    between atoms: _450  and  _451
REMARK  186  A    between atoms: _453  and  _455
REMARK  187  A    between atoms: _455  and  _456
REMARK  188  A    between atoms: _458  and  _460
REMARK  189  A    between atoms: _460  and  _461
REMARK  190  A    between atoms: _460  and  _463
REMARK  191  A    between atoms: _463  and  _464
REMARK  192  A    between atoms: _464  and  _790
REMARK  193  A    between atoms: _465  and  _467
REMARK  194  A    between atoms: _467  and  _468
REMARK  195  A    between atoms: _467  and  _470
REMARK  196  A    between atoms: _470  and  _471
REMARK  197  A    between atoms: _476  and  _477
REMARK  198  A    between atoms: _479  and  _481
REMARK  199  A    between atoms: _481  and  _482
REMARK  200  A    between atoms: _481  and  _484
REMARK  201  A    between atoms: _484  and  _485
REMARK  202  A    between atoms: _485  and  _486
REMARK  203  A    between atoms: _491  and  _493
REMARK  204  A    between atoms: _493  and  _494
REMARK  205  A    between atoms: _493  and  _496
REMARK  206  A    between atoms: _496  and  _497
REMARK  207  A    between atoms: _497  and  _498
REMARK  208  A    between atoms: _503  and  _505
REMARK  209  A    between atoms: _505  and  _506
REMARK  210  A    between atoms: _505  and  _508
REMARK  211  A    between atoms: _508  and  _509
REMARK  212  A    between atoms: _514  and  _515
REMARK  213  A    between atoms: _517  and  _519
REMARK  214  A    between atoms: _519  and  _520
REMARK  215  A    between atoms: _523  and  _525
REMARK  216  A    between atoms: _525  and  _526
REMARK  217  A    between atoms: _525  and  _528
REMARK  218  A    between atoms: _528  and  _529
REMARK  219  A    between atoms: _534  and  _535
REMARK  220  A    between atoms: _537  and  _539
REMARK  221  A    between atoms: _539  and  _540
REMARK  222  A    between atoms: _539  and  _542
REMARK  223  A    between atoms: _542  and  _543
REMARK  224  A    between atoms: _548  and  _549
REMARK  225  A    between atoms: _551  and  _553
REMARK  226  A    between atoms: _553  and  _554
REMARK  227  A    between atoms: _553  and  _556
REMARK  228  A    between atoms: _556  and  _557
REMARK  229  A    between atoms: _560  and  _562
REMARK  230  A    between atoms: _562  and  _563
REMARK  231  A    between atoms: _562  and  _565
REMARK  232  A    between atoms: _565  and  _566
REMARK  233  A    between atoms: _576  and  _578
REMARK  234  A    between atoms: _578  and  _579
REMARK  235  A    between atoms: _582  and  _584
REMARK  236  A    between atoms: _584  and  _585
REMARK  237  A    between atoms: _588  and  _590
REMARK  238  A    between atoms: _590  and  _591
REMARK  239  A    between atoms: _590  and  _593
REMARK  240  A    between atoms: _593  and  _594
REMARK  241  A    between atoms: _597  and  _599
REMARK  242  A    between atoms: _599  and  _600
REMARK  243  A    between atoms: _599  and  _602
REMARK  244  A    between atoms: _602  and  _603
REMARK  245  A    between atoms: _606  and  _608
REMARK  246  A    between atoms: _608  and  _609
REMARK  247  A    between atoms: _608  and  _611
REMARK  248  A    between atoms: _611  and  _612
REMARK  249  A    between atoms: _615  and  _617
REMARK  250  A    between atoms: _617  and  _618
REMARK  251  A    between atoms: _617  and  _620
REMARK  252  A    between atoms: _620  and  _621
REMARK  253  A    between atoms: _621  and  _622
REMARK  254  A    between atoms: _622  and  _623
REMARK  255  A    between atoms: _623  and  _624
REMARK  256  A    between atoms: _628  and  _630
REMARK  257  A    between atoms: _630  and  _631
REMARK  258  A    between atoms: _630  and  _633
REMARK  259  A    between atoms: _633  and  _634
REMARK  260  A    between atoms: _639  and  _641
REMARK  261  A    between atoms: _641  and  _642
REMARK  262  A    between atoms: _641  and  _644
REMARK  263  A    between atoms: _644  and  _645
REMARK  264  A    between atoms: _645  and  _646
REMARK  265  A    between atoms: _646  and  _647
REMARK  266  A    between atoms: _647  and  _648
REMARK  267  A    between atoms: _652  and  _654
REMARK  268  A    between atoms: _654  and  _655
REMARK  269  A    between atoms: _654  and  _657
REMARK  270  A    between atoms: _657  and  _658
REMARK  271  A    between atoms: _668  and  _670
REMARK  272  A    between atoms: _670  and  _671
REMARK  273  A    between atoms: _674  and  _676
REMARK  274  A    between atoms: _676  and  _677
REMARK  275  A    between atoms: _679  and  _681
REMARK  276  A    between atoms: _681  and  _682
REMARK  277  A    between atoms: _685  and  _687
REMARK  278  A    between atoms: _687  and  _688
REMARK  279  A    between atoms: _691  and  _693
REMARK  280  A    between atoms: _693  and  _694
REMARK  281  A    between atoms: _693  and  _696
REMARK  282  A    between atoms: _696  and  _697
REMARK  283  A    between atoms: _697  and  _698
REMARK  284  A    between atoms: _701  and  _703
REMARK  285  A    between atoms: _703  and  _704
REMARK  286  A    between atoms: _703  and  _706
REMARK  287  A    between atoms: _706  and  _707
REMARK  288  A    between atoms: _712  and  _713
REMARK  289  A    between atoms: _715  and  _717
REMARK  290  A    between atoms: _717  and  _718
REMARK  291  A    between atoms: _717  and  _720
REMARK  292  A    between atoms: _720  and  _721
REMARK  293  A    between atoms: _726  and  _727
REMARK  294  A    between atoms: _729  and  _731
REMARK  295  A    between atoms: _731  and  _732
REMARK  296  A    between atoms: _731  and  _734
REMARK  297  A    between atoms: _734  and  _735
REMARK  298  A    between atoms: _735  and  _736
REMARK  299  A    between atoms: _736  and  _737
REMARK  300  A    between atoms: _746  and  _748
REMARK  301  A    between atoms: _748  and  _749
REMARK  302  A    between atoms: _752  and  _754
REMARK  303  A    between atoms: _754  and  _755
REMARK  304  A    between atoms: _754  and  _757
REMARK  305  A    between atoms: _757  and  _758
REMARK  306  A    between atoms: _763  and  _764
REMARK  307  A    between atoms: _766  and  _768
REMARK  308  A    between atoms: _768  and  _769
REMARK  309  A    between atoms: _768  and  _771
REMARK  310  A    between atoms: _771  and  _772
REMARK  311  A    between atoms: _775  and  _777
REMARK  312  A    between atoms: _777  and  _778
REMARK  313  A    between atoms: _777  and  _780
REMARK  314  A    between atoms: _780  and  _781
REMARK  315  A    between atoms: _784  and  _786
REMARK  316  A    between atoms: _786  and  _787
REMARK  317  A    between atoms: _786  and  _789
REMARK  318  A    between atoms: _789  and  _790
REMARK  319  A    between atoms: _791  and  _793
REMARK  320  A    between atoms: _793  and  _794
REMARK  321  A    between atoms: _793  and  _796
REMARK  322  A    between atoms: _799  and  _801
REMARK  323  A    between atoms: _801  and  _802
REMARK  324  A    between atoms: _801  and  _804
REMARK  325  A    between atoms: _804  and  _805
REMARK  326  A    between atoms: _805  and  _806
REMARK  327  A    between atoms: _809  and  _811
REMARK  328  A    between atoms: _811  and  _812
REMARK  329  A    between atoms: _811  and  _814
REMARK  330  A    between atoms: _814  and  _815
REMARK  331  A    between atoms: _825  and  _827
REMARK  332  A    between atoms: _827  and  _828
REMARK  333  A    between atoms: _827  and  _830
REMARK  334  A    between atoms: _830  and  _831
REMARK  335  A    between atoms: _834  and  _836
REMARK  336  A    between atoms: _836  and  _837
REMARK  337  A    between atoms: _836  and  _839
REMARK  338  A    between atoms: _839  and  _840
REMARK  339  A    between atoms: _840  and  _841
REMARK  340  A    between atoms: _841  and  _842
REMARK  341  A    between atoms: _851  and  _853
REMARK  342  A    between atoms: _853  and  _854
REMARK  343  A    between atoms: _853  and  _856
REMARK  344  A    between atoms: _856  and  _857
REMARK  345  A    between atoms: _862  and  _863
REMARK                            x       y       z     vdW  Elec       q    Type
REMARK                         _______ _______ _______ _____ _____    ______ ____
ROOT
ATOM      1  O   HOH     1      38.828  61.241  -1.043  0.00  0.00    +0.000 OA
ENDROOT
TORSDOF 0
REMARK  Name = ../refined-set-2016/1fzj/1fzj_pocket.pdb
REMARK  345 active torsions:
REMARK  status: ('A' for Active; 'I' for Inactive)
REMARK    1  A    between atoms: _1  and  _3
REMARK    2  A    between atoms: _3  and  _4
REMARK    3  A    between atoms: _3  and  _6
REMARK    4  A    between atoms: _6  and  _7
REMARK    5  A    between atoms: _10  and  _12
REMARK    6  A    between atoms: _12  and  _13
REMARK    7  A    between atoms: _12  and  _15
REMARK    8  A    between atoms: _15  and  _16
REMARK    9  A    between atoms: _16  and  _17
REMARK   10  A    between atoms: _17  and  _18
REMARK   11  A    between atoms: _27  and  _29
REMARK   12  A    between atoms: _29  and  _30
REMARK   13  A    between atoms: _29  and  _32
REMARK   14  A    between atoms: _32  and  _33
REMARK   15  A    between atoms: _38  and  _39
REMARK   16  A    between atoms: _41  and  _43
REMARK   17  A    between atoms: _43  and  _44
REMARK   18  A    between atoms: _43  and  _46
REMARK   19  A    between atoms: _46  and  _47
REMARK   20  A    between atoms: _53  and  _55
REMARK   21  A    between atoms: _55  and  _56
REMARK   22  A    between atoms: _55  and  _58
REMARK   23  A    between atoms: _61  and  _63
REMARK   24  A    between atoms: _63  and  _64
REMARK   25  A    between atoms: _63  and  _66
REMARK   26  A    between atoms: _66  and  _67
REMARK   27  A    between atoms: _70  and  _72
REMARK   28  A    between atoms: _72  and  _73
REMARK   29  A    between atoms: _72  and  _75
REMARK   30  A    between atoms: _75  and  _76
REMARK   31  A    between atoms: _81  and  _82
REMARK   32  A    between atoms: _84  and  _86
REMARK   33  A    between atoms: _86  and  _87
REMARK   34  A    between atoms: _86  and  _89
REMARK   35  A    between atoms: _89  and  _90
REMARK   36  A    between atoms: _90  and  _91
REMARK   37  A    between atoms: _93  and  _95
REMARK   38  A    between atoms: _95  and  _96
REMARK   39  A    between atoms: _95  and  _98
REMARK   40  A    between atoms: _98  and  _99
REMARK   41  A    between atoms: _99  and  _100
REMARK   42  A    between atoms: _103  and  _105
REMARK   43  A    between atoms: _105  and  _106
REMARK   44  A    between atoms: _105  and  _108
REMARK   45  A    between atoms: _111  and  _113
REMARK   46  A    between atoms: _113  and  _114
REMARK   47  A    between atoms: _113  and  _116
REMARK   48  A    between atoms: _119  and  _121
REMARK   49  A    between atoms: _121  and  _122
REMARK   50  A    between atoms: _121  and  _124
REMARK   51  A    between atoms: _124  and  _125
REMARK   52  A    between atoms: _131  and  _133
REMARK   53  A    between atoms: _133  and  _134
REMARK   54  A    between atoms: _133  and  _136
REMARK   55  A    between atoms: _139  and  _141
REMARK   56  A    between atoms: _141  and  _142
REMARK   57  A    between atoms: _141  and  _144
REMARK   58  A    between atoms: _144  and  _145
REMARK   59  A    between atoms: _150  and  _151
REMARK   60  A    between atoms: _153  and  _155
REMARK   61  A    between atoms: _155  and  _156
REMARK   62  A    between atoms: _155  and  _158
REMARK   63  A    between atoms: _158  and  _159
REMARK   64  A    between atoms: _159  and  _160
REMARK   65  A    between atoms: _162  and  _164
REMARK   66  A    between atoms: _164  and  _165
REMARK   67  A    between atoms: _164  and  _167
REMARK   68  A    between atoms: _167  and  _168
REMARK   69  A    between atoms: _168  and  _169
REMARK   70  A    between atoms: _172  and  _174
REMARK   71  A    between atoms: _174  and  _175
REMARK   72  A    between atoms: _174  and  _177
REMARK   73  A    between atoms: _177  and  _178
REMARK   74  A    between atoms: _178  and  _179
REMARK   75  A    between atoms: _182  and  _184
REMARK   76  A    between atoms: _184  and  _185
REMARK   77  A    between atoms: _184  and  _187
REMARK   78  A    between atoms: _187  and  _188
REMARK   79  A    between atoms: _193  and  _194
REMARK   80  A    between atoms: _196  and  _198
REMARK   81  A    between atoms: _198  and  _199
REMARK   82  A    between atoms: _198  and  _201
REMARK   83  A    between atoms: _201  and  _202
REMARK   84  A    between atoms: _212  and  _214
REMARK   85  A    between atoms: _214  and  _215
REMARK   86  A    between atoms: _214  and  _217
REMARK   87  A    between atoms: _217  and  _218
REMARK   88  A    between atoms: _218  and  _219
REMARK   89  A    between atoms: _222  and  _224
REMARK   90  A    between atoms: _224  and  _225
REMARK   91  A    between atoms: _224  and  _227
REMARK   92  A    between atoms: _227  and  _228
REMARK   93  A    between atoms: _228  and  _229
REMARK   94  A    between atoms: _229  and  _230
REMARK   95  A    between atoms: _239  and  _241
REMARK   96  A    between atoms: _241  and  _242
REMARK   97  A    between atoms: _241  and  _244
REMARK   98  A    between atoms: _244  and  _245
REMARK   99  A    between atoms: _245  and  _246
REMARK  100  A    between atoms: _249  and  _251
REMARK  101  A    between atoms: _251  and  _252
REMARK  102  A    between atoms: _251  and  _254
REMARK  103  A    between atoms: _254  and  _255
REMARK  104  A    between atoms: _258  and  _260
REMARK  105  A    between atoms: _260  and  _261
REMARK  106  A    between atoms: _260  and  _263
REMARK  107  A    between atoms: _263  and  _264
REMARK  108  A    between atoms: _264  and  _265
REMARK  109  A    between atoms: _270  and  _272
REMARK  110  A    between atoms: _272  and  _273
REMARK  111  A    between atoms: _272  and  _275
REMARK  112  A    between atoms: _275  and  _276
REMARK  113  A    between atoms: _276  and  _277
REMARK  114  A    between atoms: _277  and  _278
REMARK  115  A    between atoms: _278  and  _279
REMARK  116  A    between atoms: _283  and  _285
REMARK  117  A    between atoms: _285  and  _286
REMARK  118  A    between atoms: _289  and  _291
REMARK  119  A    between atoms: _291  and  _292
REMARK  120  A    between atoms: _294  and  _296
REMARK  121  A    between atoms: _296  and  _297
REMARK  122  A    between atoms: _296  and  _299
REMARK  123  A    between atoms: _299  and  _300
REMARK  124  A    between atoms: _305  and  _307
REMARK  125  A    between atoms: _307  and  _308
REMARK  126  A    between atoms: _307  and  _310
REMARK  127  A    between atoms: _310  and  _311
REMARK  128  A    between atoms: _311  and  _312
REMARK  129  A    between atoms: _315  and  _317
REMARK  130  A    between atoms: _317  and  _318
REMARK  131  A    between atoms: _317  and  _320
REMARK  132  A    between atoms: _320  and  _321
REMARK  133  A    between atoms: _323  and  _325
REMARK  134  A    between atoms: _325  and  _326
REMARK  135  A    between atoms: _325  and  _328
REMARK  136  A    between atoms: _328  and  _329
REMARK  137  A    between atoms: _335  and  _337
REMARK  138  A    between atoms: _337  and  _338
REMARK  139  A    between atoms: _337  and  _340
REMARK  140  A    between atoms: _343  and  _345
REMARK  141  A    between atoms: _345  and  _346
REMARK  142  A    between atoms: _345  and  _348
REMARK  143  A    between atoms: _348  and  _349
REMARK  144  A    between atoms: _352  and  _354
REMARK  145  A    between atoms: _354  and  _355
REMARK  146  A    between atoms: _354  and  _357
REMARK  147  A    between atoms: _357  and  _358
REMARK  148  A    between atoms: _361  and  _363
REMARK  149  A    between atoms: _363  and  _364
REMARK  150  A    between atoms: _363  and  _366
REMARK  151  A    between atoms: _366  and  _367
REMARK  152  A    between atoms: _370  and  _372
REMARK  153  A    between atoms: _372  and  _373
REMARK  154  A    between atoms: _372  and  _375
REMARK  155  A    between atoms: _375  and  _376
REMARK  156  A    between atoms: _379  and  _381
REMARK  157  A    between atoms: _381  and  _382
REMARK  158  A    between atoms: _381  and  _384
REMARK  159  A    between atoms: _384  and  _385
REMARK  160  A    between atoms: _390  and  _391
REMARK  161  A    between atoms: _393  and  _395
REMARK  162  A    between atoms: _395  and  _396
REMARK  163  A    between atoms: _395  and  _398
REMARK  164  A    between atoms: _398  and  _399
REMARK  165  A    between atoms: _404  and  _405
REMARK  166  A    between atoms: _407  and  _409
REMARK  167  A    between atoms: _409  and  _410
REMARK  168  A    between atoms: _409  and  _412
REMARK  169  A    between atoms: _412  and  _413
REMARK  170  A    between atoms: _416  and  _418
REMARK  171  A    between atoms: _418  and  _419
REMARK  172  A    between atoms: _418  and  _421
REMARK  173  A    between atoms: _421  and  _422
REMARK  174  A    between atoms: _422  and  _423
REMARK  175  A    between atoms: _428  and  _430
REMARK  176  A    between atoms: _430  and  _431
REMARK  177  A    between atoms: _430  and  _433
REMARK  178  A    between atoms: _436  and  _438
REMARK  179  A    between atoms: _438  and  _439
REMARK  180  A    between atoms: _438  and  _441
REMARK  181  A    between atoms: _441  and  _442
REMARK  182  A    between atoms: _445  and  _447
REMARK  183  A    between atoms: _447  and  _448
REMARK  184  A    between atoms: _447  and  _450
REMARK  185  A    between atoms: _450  and  _451
REMARK  186  A    between atoms: _453  and  _455
REMARK  187  A    between atoms: _455  and  _456
REMARK  188  A    between atoms: _458  and  _460
REMARK  189  A    between atoms: _460  and  _461
REMARK  190  A    between atoms: _460  and  _463
REMARK  191  A    between atoms: _463  and  _464
REMARK  192  A    between atoms: _464  and  _790
REMARK  193  A    between atoms: _465  and  _467
REMARK  194  A    between atoms: _467  and  _468
REMARK  195  A    between atoms: _467  and  _470
REMARK  196  A    between atoms: _470  and  _471
REMARK  197  A    between atoms: _476  and  _477
REMARK  198  A    between atoms: _479  and  _481
REMARK  199  A    between atoms: _481  and  _482
REMARK  200  A    between atoms: _481  and  _484
REMARK  201  A    between atoms: _484  and  _485
REMARK  202  A    between atoms: _485  and  _486
REMARK  203  A    between atoms: _491  and  _493
REMARK  204  A    between atoms: _493  and  _494
REMARK  205  A    between atoms: _493  and  _496
REMARK  206  A    between atoms: _496  and  _497
REMARK  207  A    between atoms: _497  and  _498
REMARK  208  A    between atoms: _503  and  _505
REMARK  209  A    between atoms: _505  and  _506
REMARK  210  A    between atoms: _505  and  _508
REMARK  211  A    between atoms: _508  and  _509
REMARK  212  A    between atoms: _514  and  _515
REMARK  213  A    between atoms: _517  and  _519
REMARK  214  A    between atoms: _519  and  _520
REMARK  215  A    between atoms: _523  and  _525
REMARK  216  A    between atoms: _525  and  _526
REMARK  217  A    between atoms: _525  and  _528
REMARK  218  A    between atoms: _528  and  _529
REMARK  219  A    between atoms: _534  and  _535
REMARK  220  A    between atoms: _537  and  _539
REMARK  221  A    between atoms: _539  and  _540
REMARK  222  A    between atoms: _539  and  _542
REMARK  223  A    between atoms: _542  and  _543
REMARK  224  A    between atoms: _548  and  _549
REMARK  225  A    between atoms: _551  and  _553
REMARK  226  A    between atoms: _553  and  _554
REMARK  227  A    between atoms: _553  and  _556
REMARK  228  A    between atoms: _556  and  _557
REMARK  229  A    between atoms: _560  and  _562
REMARK  230  A    between atoms: _562  and  _563
REMARK  231  A    between atoms: _562  and  _565
REMARK  232  A    between atoms: _565  and  _566
REMARK  233  A    between atoms: _576  and  _578
REMARK  234  A    between atoms: _578  and  _579
REMARK  235  A    between atoms: _582  and  _584
REMARK  236  A    between atoms: _584  and  _585
REMARK  237  A    between atoms: _588  and  _590
REMARK  238  A    between atoms: _590  and  _591
REMARK  239  A    between atoms: _590  and  _593
REMARK  240  A    between atoms: _593  and  _594
REMARK  241  A    between atoms: _597  and  _599
REMARK  242  A    between atoms: _599  and  _600
REMARK  243  A    between atoms: _599  and  _602
REMARK  244  A    between atoms: _602  and  _603
REMARK  245  A    between atoms: _606  and  _608
REMARK  246  A    between atoms: _608  and  _609
REMARK  247  A    between atoms: _608  and  _611
REMARK  248  A    between atoms: _611  and  _612
REMARK  249  A    between atoms: _615  and  _617
REMARK  250  A    between atoms: _617  and  _618
REMARK  251  A    between atoms: _617  and  _620
REMARK  252  A    between atoms: _620  and  _621
REMARK  253  A    between atoms: _621  and  _622
REMARK  254  A    between atoms: _622  and  _623
REMARK  255  A    between atoms: _623  and  _624
REMARK  256  A    between atoms: _628  and  _630
REMARK  257  A    between atoms: _630  and  _631
REMARK  258  A    between atoms: _630  and  _633
REMARK  259  A    between atoms: _633  and  _634
REMARK  260  A    between atoms: _639  and  _641
REMARK  261  A    between atoms: _641  and  _642
REMARK  262  A    between atoms: _641  and  _644
REMARK  263  A    between atoms: _644  and  _645
REMARK  264  A    between atoms: _645  and  _646
REMARK  265  A    between atoms: _646  and  _647
REMARK  266  A    between atoms: _647  and  _648
REMARK  267  A    between atoms: _652  and  _654
REMARK  268  A    between atoms: _654  and  _655
REMARK  269  A    between atoms: _654  and  _657
REMARK  270  A    between atoms: _657  and  _658
REMARK  271  A    between atoms: _668  and  _670
REMARK  272  A    between atoms: _670  and  _671
REMARK  273  A    between atoms: _674  and  _676
REMARK  274  A    between atoms: _676  and  _677
REMARK  275  A    between atoms: _679  and  _681
REMARK  276  A    between atoms: _681  and  _682
REMARK  277  A    between atoms: _685  and  _687
REMARK  278  A    between atoms: _687  and  _688
REMARK  279  A    between atoms: _691  and  _693
REMARK  280  A    between atoms: _693  and  _694
REMARK  281  A    between atoms: _693  and  _696
REMARK  282  A    between atoms: _696  and  _697
REMARK  283  A    between atoms: _697  and  _698
REMARK  284  A    between atoms: _701  and  _703
REMARK  285  A    between atoms: _703  and  _704
REMARK  286  A    between atoms: _703  and  _706
REMARK  287  A    between atoms: _706  and  _707
REMARK  288  A    between atoms: _712  and  _713
REMARK  289  A    between atoms: _715  and  _717
REMARK  290  A    between atoms: _717  and  _718
REMARK  291  A    between atoms: _717  and  _720
REMARK  292  A    between atoms: _720  and  _721
REMARK  293  A    between atoms: _726  and  _727
REMARK  294  A    between atoms: _729  and  _731
REMARK  295  A    between atoms: _731  and  _732
REMARK  296  A    between atoms: _731  and  _734
REMARK  297  A    between atoms: _734  and  _735
REMARK  298  A    between atoms: _735  and  _736
REMARK  299  A    between atoms: _736  and  _737
REMARK  300  A    between atoms: _746  and  _748
REMARK  301  A    between atoms: _748  and  _749
REMARK  302  A    between atoms: _752  and  _754
REMARK  303  A    between atoms: _754  and  _755
REMARK  304  A    between atoms: _754  and  _757
REMARK  305  A    between atoms: _757  and  _758
REMARK  306  A    between atoms: _763  and  _764
REMARK  307  A    between atoms: _766  and  _768
REMARK  308  A    between atoms: _768  and  _769
REMARK  309  A    between atoms: _768  and  _771
REMARK  310  A    between atoms: _771  and  _772
REMARK  311  A    between atoms: _775  and  _777
REMARK  312  A    between atoms: _777  and  _778
REMARK  313  A    between atoms: _777  and  _780
REMARK  314  A    between atoms: _780  and  _781
REMARK  315  A    between atoms: _784  and  _786
REMARK  316  A    between atoms: _786  and  _787
REMARK  317  A    between atoms: _786  and  _789
REMARK  318  A    between atoms: _789  and  _790
REMARK  319  A    between atoms: _791  and  _793
REMARK  320  A    between atoms: _793  and  _794
REMARK  321  A    between atoms: _793  and  _796
REMARK  322  A    between atoms: _799  and  _801
REMARK  323  A    between atoms: _801  and  _802
REMARK  324  A    between atoms: _801  and  _804
REMARK  325  A    between atoms: _804  and  _805
REMARK  326  A    between atoms: _805  and  _806
REMARK  327  A    between atoms: _809  and  _811
REMARK  328  A    between atoms: _811  and  _812
REMARK  329  A    between atoms: _811  and  _814
REMARK  330  A    between atoms: _814  and  _815
REMARK  331  A    between atoms: _825  and  _827
REMARK  332  A    between atoms: _827  and  _828
REMARK  333  A    between atoms: _827  and  _830
REMARK  334  A    between atoms: _830  and  _831
REMARK  335  A    between atoms: _834  and  _836
REMARK  336  A    between atoms: _836  and  _837
REMARK  337  A    between atoms: _836  and  _839
REMARK  338  A    between atoms: _839  and  _840
REMARK  339  A    between atoms: _840  and  _841
REMARK  340  A    between atoms: _841  and  _842
REMARK  341  A    between atoms: _851  and  _853
REMARK  342  A    between atoms: _853  and  _854
REMARK  343  A    between atoms: _853  and  _856
REMARK  344  A    between atoms: _856  and  _857
REMARK  345  A    between atoms: _862  and  _863
REMARK                            x       y       z     vdW  Elec       q    Type
REMARK                         _______ _______ _______ _____ _____    ______ ____
ROOT
ATOM      1  O   HOH     1      37.332  57.040  -8.110  0.00  0.00    +0.000 OA
ENDROOT
TORSDOF 0
REMARK  Name = ../refined-set-2016/1fzj/1fzj_pocket.pdb
REMARK  345 active torsions:
REMARK  status: ('A' for Active; 'I' for Inactive)
REMARK    1  A    between atoms: _1  and  _3
REMARK    2  A    between atoms: _3  and  _4
REMARK    3  A    between atoms: _3  and  _6
REMARK    4  A    between atoms: _6  and  _7
REMARK    5  A    between atoms: _10  and  _12
REMARK    6  A    between atoms: _12  and  _13
REMARK    7  A    between atoms: _12  and  _15
REMARK    8  A    between atoms: _15  and  _16
REMARK    9  A    between atoms: _16  and  _17
REMARK   10  A    between atoms: _17  and  _18
REMARK   11  A    between atoms: _27  and  _29
REMARK   12  A    between atoms: _29  and  _30
REMARK   13  A    between atoms: _29  and  _32
REMARK   14  A    between atoms: _32  and  _33
REMARK   15  A    between atoms: _38  and  _39
REMARK   16  A    between atoms: _41  and  _43
REMARK   17  A    between atoms: _43  and  _44
REMARK   18  A    between atoms: _43  and  _46
REMARK   19  A    between atoms: _46  and  _47
REMARK   20  A    between atoms: _53  and  _55
REMARK   21  A    between atoms: _55  and  _56
REMARK   22  A    between atoms: _55  and  _58
REMARK   23  A    between atoms: _61  and  _63
REMARK   24  A    between atoms: _63  and  _64
REMARK   25  A    between atoms: _63  and  _66
REMARK   26  A    between atoms: _66  and  _67
REMARK   27  A    between atoms: _70  and  _72
REMARK   28  A    between atoms: _72  and  _73
REMARK   29  A    between atoms: _72  and  _75
REMARK   30  A    between atoms: _75  and  _76
REMARK   31  A    between atoms: _81  and  _82
REMARK   32  A    between atoms: _84  and  _86
REMARK   33  A    between atoms: _86  and  _87
REMARK   34  A    between atoms: _86  and  _89
REMARK   35  A    between atoms: _89  and  _90
REMARK   36  A    between atoms: _90  and  _91
REMARK   37  A    between atoms: _93  and  _95
REMARK   38  A    between atoms: _95  and  _96
REMARK   39  A    between atoms: _95  and  _98
REMARK   40  A    between atoms: _98  and  _99
REMARK   41  A    between atoms: _99  and  _100
REMARK   42  A    between atoms: _103  and  _105
REMARK   43  A    between atoms: _105  and  _106
REMARK   44  A    between atoms: _105  and  _108
REMARK   45  A    between atoms: _111  and  _113
REMARK   46  A    between atoms: _113  and  _114
REMARK   47  A    between atoms: _113  and  _116
REMARK   48  A    between atoms: _119  and  _121
REMARK   49  A    between atoms: _121  and  _122
REMARK   50  A    between atoms: _121  and  _124
REMARK   51  A    between atoms: _124  and  _125
REMARK   52  A    between atoms: _131  and  _133
REMARK   53  A    between atoms: _133  and  _134
REMARK   54  A    between atoms: _133  and  _136
REMARK   55  A    between atoms: _139  and  _141
REMARK   56  A    between atoms: _141  and  _142
REMARK   57  A    between atoms: _141  and  _144
REMARK   58  A    between atoms: _144  and  _145
REMARK   59  A    between atoms: _150  and  _151
REMARK   60  A    between atoms: _153  and  _155
REMARK   61  A    between atoms: _155  and  _156
REMARK   62  A    between atoms: _155  and  _158
REMARK   63  A    between atoms: _158  and  _159
REMARK   64  A    between atoms: _159  and  _160
REMARK   65  A    between atoms: _162  and  _164
REMARK   66  A    between atoms: _164  and  _165
REMARK   67  A    between atoms: _164  and  _167
REMARK   68  A    between atoms: _167  and  _168
REMARK   69  A    between atoms: _168  and  _169
REMARK   70  A    between atoms: _172  and  _174
REMARK   71  A    between atoms: _174  and  _175
REMARK   72  A    between atoms: _174  and  _177
REMARK   73  A    between atoms: _177  and  _178
REMARK   74  A    between atoms: _178  and  _179
REMARK   75  A    between atoms: _182  and  _184
REMARK   76  A    between atoms: _184  and  _185
REMARK   77  A    between atoms: _184  and  _187
REMARK   78  A    between atoms: _187  and  _188
REMARK   79  A    between atoms: _193  and  _194
REMARK   80  A    between atoms: _196  and  _198
REMARK   81  A    between atoms: _198  and  _199
REMARK   82  A    between atoms: _198  and  _201
REMARK   83  A    between atoms: _201  and  _202
REMARK   84  A    between atoms: _212  and  _214
REMARK   85  A    between atoms: _214  and  _215
REMARK   86  A    between atoms: _214  and  _217
REMARK   87  A    between atoms: _217  and  _218
REMARK   88  A    between atoms: _218  and  _219
REMARK   89  A    between atoms: _222  and  _224
REMARK   90  A    between atoms: _224  and  _225
REMARK   91  A    between atoms: _224  and  _227
REMARK   92  A    between atoms: _227  and  _228
REMARK   93  A    between atoms: _228  and  _229
REMARK   94  A    between atoms: _229  and  _230
REMARK   95  A    between atoms: _239  and  _241
REMARK   96  A    between atoms: _241  and  _242
REMARK   97  A    between atoms: _241  and  _244
REMARK   98  A    between atoms: _244  and  _245
REMARK   99  A    between atoms: _245  and  _246
REMARK  100  A    between atoms: _249  and  _251
REMARK  101  A    between atoms: _251  and  _252
REMARK  102  A    between atoms: _251  and  _254
REMARK  103  A    between atoms: _254  and  _255
REMARK  104  A    between atoms: _258  and  _260
REMARK  105  A    between atoms: _260  and  _261
REMARK  106  A    between atoms: _260  and  _263
REMARK  107  A    between atoms: _263  and  _264
REMARK  108  A    between atoms: _264  and  _265
REMARK  109  A    between atoms: _270  and  _272
REMARK  110  A    between atoms: _272  and  _273
REMARK  111  A    between atoms: _272  and  _275
REMARK  112  A    between atoms: _275  and  _276
REMARK  113  A    between atoms: _276  and  _277
REMARK  114  A    between atoms: _277  and  _278
REMARK  115  A    between atoms: _278  and  _279
REMARK  116  A    between atoms: _283  and  _285
REMARK  117  A    between atoms: _285  and  _286
REMARK  118  A    between atoms: _289  and  _291
REMARK  119  A    between atoms: _291  and  _292
REMARK  120  A    between atoms: _294  and  _296
REMARK  121  A    between atoms: _296  and  _297
REMARK  122  A    between atoms: _296  and  _299
REMARK  123  A    between atoms: _299  and  _300
REMARK  124  A    between atoms: _305  and  _307
REMARK  125  A    between atoms: _307  and  _308
REMARK  126  A    between atoms: _307  and  _310
REMARK  127  A    between atoms: _310  and  _311
REMARK  128  A    between atoms: _311  and  _312
REMARK  129  A    between atoms: _315  and  _317
REMARK  130  A    between atoms: _317  and  _318
REMARK  131  A    between atoms: _317  and  _320
REMARK  132  A    between atoms: _320  and  _321
REMARK  133  A    between atoms: _323  and  _325
REMARK  134  A    between atoms: _325  and  _326
REMARK  135  A    between atoms: _325  and  _328
REMARK  136  A    between atoms: _328  and  _329
REMARK  137  A    between atoms: _335  and  _337
REMARK  138  A    between atoms: _337  and  _338
REMARK  139  A    between atoms: _337  and  _340
REMARK  140  A    between atoms: _343  and  _345
REMARK  141  A    between atoms: _345  and  _346
REMARK  142  A    between atoms: _345  and  _348
REMARK  143  A    between atoms: _348  and  _349
REMARK  144  A    between atoms: _352  and  _354
REMARK  145  A    between atoms: _354  and  _355
REMARK  146  A    between atoms: _354  and  _357
REMARK  147  A    between atoms: _357  and  _358
REMARK  148  A    between atoms: _361  and  _363
REMARK  149  A    between atoms: _363  and  _364
REMARK  150  A    between atoms: _363  and  _366
REMARK  151  A    between atoms: _366  and  _367
REMARK  152  A    between atoms: _370  and  _372
REMARK  153  A    between atoms: _372  and  _373
REMARK  154  A    between atoms: _372  and  _375
REMARK  155  A    between atoms: _375  and  _376
REMARK  156  A    between atoms: _379  and  _381
REMARK  157  A    between atoms: _381  and  _382
REMARK  158  A    between atoms: _381  and  _384
REMARK  159  A    between atoms: _384  and  _385
REMARK  160  A    between atoms: _390  and  _391
REMARK  161  A    between atoms: _393  and  _395
REMARK  162  A    between atoms: _395  and  _396
REMARK  163  A    between atoms: _395  and  _398
REMARK  164  A    between atoms: _398  and  _399
REMARK  165  A    between atoms: _404  and  _405
REMARK  166  A    between atoms: _407  and  _409
REMARK  167  A    between atoms: _409  and  _410
REMARK  168  A    between atoms: _409  and  _412
REMARK  169  A    between atoms: _412  and  _413
REMARK  170  A    between atoms: _416  and  _418
REMARK  171  A    between atoms: _418  and  _419
REMARK  172  A    between atoms: _418  and  _421
REMARK  173  A    between atoms: _421  and  _422
REMARK  174  A    between atoms: _422  and  _423
REMARK  175  A    between atoms: _428  and  _430
REMARK  176  A    between atoms: _430  and  _431
REMARK  177  A    between atoms: _430  and  _433
REMARK  178  A    between atoms: _436  and  _438
REMARK  179  A    between atoms: _438  and  _439
REMARK  180  A    between atoms: _438  and  _441
REMARK  181  A    between atoms: _441  and  _442
REMARK  182  A    between atoms: _445  and  _447
REMARK  183  A    between atoms: _447  and  _448
REMARK  184  A    between atoms: _447  and  _450
REMARK  185  A    between atoms: _450  and  _451
REMARK  186  A    between atoms: _453  and  _455
REMARK  187  A    between atoms: _455  and  _456
REMARK  188  A    between atoms: _458  and  _460
REMARK  189  A    between atoms: _460  and  _461
REMARK  190  A    between atoms: _460  and  _463
REMARK  191  A    between atoms: _463  and  _464
REMARK  192  A    between atoms: _464  and  _790
REMARK  193  A    between atoms: _465  and  _467
REMARK  194  A    between atoms: _467  and  _468
REMARK  195  A    between atoms: _467  and  _470
REMARK  196  A    between atoms: _470  and  _471
REMARK  197  A    between atoms: _476  and  _477
REMARK  198  A    between atoms: _479  and  _481
REMARK  199  A    between atoms: _481  and  _482
REMARK  200  A    between atoms: _481  and  _484
REMARK  201  A    between atoms: _484  and  _485
REMARK  202  A    between atoms: _485  and  _486
REMARK  203  A    between atoms: _491  and  _493
REMARK  204  A    between atoms: _493  and  _494
REMARK  205  A    between atoms: _493  and  _496
REMARK  206  A    between atoms: _496  and  _497
REMARK  207  A    between atoms: _497  and  _498
REMARK  208  A    between atoms: _503  and  _505
REMARK  209  A    between atoms: _505  and  _506
REMARK  210  A    between atoms: _505  and  _508
REMARK  211  A    between atoms: _508  and  _509
REMARK  212  A    between atoms: _514  and  _515
REMARK  213  A    between atoms: _517  and  _519
REMARK  214  A    between atoms: _519  and  _520
REMARK  215  A    between atoms: _523  and  _525
REMARK  216  A    between atoms: _525  and  _526
REMARK  217  A    between atoms: _525  and  _528
REMARK  218  A    between atoms: _528  and  _529
REMARK  219  A    between atoms: _534  and  _535
REMARK  220  A    between atoms: _537  and  _539
REMARK  221  A    between atoms: _539  and  _540
REMARK  222  A    between atoms: _539  and  _542
REMARK  223  A    between atoms: _542  and  _543
REMARK  224  A    between atoms: _548  and  _549
REMARK  225  A    between atoms: _551  and  _553
REMARK  226  A    between atoms: _553  and  _554
REMARK  227  A    between atoms: _553  and  _556
REMARK  228  A    between atoms: _556  and  _557
REMARK  229  A    between atoms: _560  and  _562
REMARK  230  A    between atoms: _562  and  _563
REMARK  231  A    between atoms: _562  and  _565
REMARK  232  A    between atoms: _565  and  _566
REMARK  233  A    between atoms: _576  and  _578
REMARK  234  A    between atoms: _578  and  _579
REMARK  235  A    between atoms: _582  and  _584
REMARK  236  A    between atoms: _584  and  _585
REMARK  237  A    between atoms: _588  and  _590
REMARK  238  A    between atoms: _590  and  _591
REMARK  239  A    between atoms: _590  and  _593
REMARK  240  A    between atoms: _593  and  _594
REMARK  241  A    between atoms: _597  and  _599
REMARK  242  A    between atoms: _599  and  _600
REMARK  243  A    between atoms: _599  and  _602
REMARK  244  A    between atoms: _602  and  _603
REMARK  245  A    between atoms: _606  and  _608
REMARK  246  A    between atoms: _608  and  _609
REMARK  247  A    between atoms: _608  and  _611
REMARK  248  A    between atoms: _611  and  _612
REMARK  249  A    between atoms: _615  and  _617
REMARK  250  A    between atoms: _617  and  _618
REMARK  251  A    between atoms: _617  and  _620
REMARK  252  A    between atoms: _620  and  _621
REMARK  253  A    between atoms: _621  and  _622
REMARK  254  A    between atoms: _622  and  _623
REMARK  255  A    between atoms: _623  and  _624
REMARK  256  A    between atoms: _628  and  _630
REMARK  257  A    between atoms: _630  and  _631
REMARK  258  A    between atoms: _630  and  _633
REMARK  259  A    between atoms: _633  and  _634
REMARK  260  A    between atoms: _639  and  _641
REMARK  261  A    between atoms: _641  and  _642
REMARK  262  A    between atoms: _641  and  _644
REMARK  263  A    between atoms: _644  and  _645
REMARK  264  A    between atoms: _645  and  _646
REMARK  265  A    between atoms: _646  and  _647
REMARK  266  A    between atoms: _647  and  _648
REMARK  267  A    between atoms: _652  and  _654
REMARK  268  A    between atoms: _654  and  _655
REMARK  269  A    between atoms: _654  and  _657
REMARK  270  A    between atoms: _657  and  _658
REMARK  271  A    between atoms: _668  and  _670
REMARK  272  A    between atoms: _670  and  _671
REMARK  273  A    between atoms: _674  and  _676
REMARK  274  A    between atoms: _676  and  _677
REMARK  275  A    between atoms: _679  and  _681
REMARK  276  A    between atoms: _681  and  _682
REMARK  277  A    between atoms: _685  and  _687
REMARK  278  A    between atoms: _687  and  _688
REMARK  279  A    between atoms: _691  and  _693
REMARK  280  A    between atoms: _693  and  _694
REMARK  281  A    between atoms: _693  and  _696
REMARK  282  A    between atoms: _696  and  _697
REMARK  283  A    between atoms: _697  and  _698
REMARK  284  A    between atoms: _701  and  _703
REMARK  285  A    between atoms: _703  and  _704
REMARK  286  A    between atoms: _703  and  _706
REMARK  287  A    between atoms: _706  and  _707
REMARK  288  A    between atoms: _712  and  _713
REMARK  289  A    between atoms: _715  and  _717
REMARK  290  A    between atoms: _717  and  _718
REMARK  291  A    between atoms: _717  and  _720
REMARK  292  A    between atoms: _720  and  _721
REMARK  293  A    between atoms: _726  and  _727
REMARK  294  A    between atoms: _729  and  _731
REMARK  295  A    between atoms: _731  and  _732
REMARK  296  A    between atoms: _731  and  _734
REMARK  297  A    between atoms: _734  and  _735
REMARK  298  A    between atoms: _735  and  _736
REMARK  299  A    between atoms: _736  and  _737
REMARK  300  A    between atoms: _746  and  _748
REMARK  301  A    between atoms: _748  and  _749
REMARK  302  A    between atoms: _752  and  _754
REMARK  303  A    between atoms: _754  and  _755
REMARK  304  A    between atoms: _754  and  _757
REMARK  305  A    between atoms: _757  and  _758
REMARK  306  A    between atoms: _763  and  _764
REMARK  307  A    between atoms: _766  and  _768
REMARK  308  A    between atoms: _768  and  _769
REMARK  309  A    between atoms: _768  and  _771
REMARK  310  A    between atoms: _771  and  _772
REMARK  311  A    between atoms: _775  and  _777
REMARK  312  A    between atoms: _777  and  _778
REMARK  313  A    between atoms: _777  and  _780
REMARK  314  A    between atoms: _780  and  _781
REMARK  315  A    between atoms: _784  and  _786
REMARK  316  A    between atoms: _786  and  _787
REMARK  317  A    between atoms: _786  and  _789
REMARK  318  A    between atoms: _789  and  _790
REMARK  319  A    between atoms: _791  and  _793
REMARK  320  A    between atoms: _793  and  _794
REMARK  321  A    between atoms: _793  and  _796
REMARK  322  A    between atoms: _799  and  _801
REMARK  323  A    between atoms: _801  and  _802
REMARK  324  A    between atoms: _801  and  _804
REMARK  325  A    between atoms: _804  and  _805
REMARK  326  A    between atoms: _805  and  _806
REMARK  327  A    between atoms: _809  and  _811
REMARK  328  A    between atoms: _811  and  _812
REMARK  329  A    between atoms: _811  and  _814
REMARK  330  A    between atoms: _814  and  _815
REMARK  331  A    between atoms: _825  and  _827
REMARK  332  A    between atoms: _827  and  _828
REMARK  333  A    between atoms: _827  and  _830
REMARK  334  A    between atoms: _830  and  _831
REMARK  335  A    between atoms: _834  and  _836
REMARK  336  A    between atoms: _836  and  _837
REMARK  337  A    between atoms: _836  and  _839
REMARK  338  A    between atoms: _839  and  _840
REMARK  339  A    between atoms: _840  and  _841
REMARK  340  A    between atoms: _841  and  _842
REMARK  341  A    between atoms: _851  and  _853
REMARK  342  A    between atoms: _853  and  _854
REMARK  343  A    between atoms: _853  and  _856
REMARK  344  A    between atoms: _856  and  _857
REMARK  345  A    between atoms: _862  and  _863
REMARK                            x       y       z     vdW  Elec       q    Type
REMARK                         _______ _______ _______ _____ _____    ______ ____
ROOT
ATOM      1  O   HOH     1      39.645  55.709  -9.369  0.00  0.00    +0.000 OA
ENDROOT
TORSDOF 0
REMARK  Name = ../refined-set-2016/1fzj/1fzj_pocket.pdb
REMARK  345 active torsions:
REMARK  status: ('A' for Active; 'I' for Inactive)
REMARK    1  A    between atoms: _1  and  _3
REMARK    2  A    between atoms: _3  and  _4
REMARK    3  A    between atoms: _3  and  _6
REMARK    4  A    between atoms: _6  and  _7
REMARK    5  A    between atoms: _10  and  _12
REMARK    6  A    between atoms: _12  and  _13
REMARK    7  A    between atoms: _12  and  _15
REMARK    8  A    between atoms: _15  and  _16
REMARK    9  A    between atoms: _16  and  _17
REMARK   10  A    between atoms: _17  and  _18
REMARK   11  A    between atoms: _27  and  _29
REMARK   12  A    between atoms: _29  and  _30
REMARK   13  A    between atoms: _29  and  _32
REMARK   14  A    between atoms: _32  and  _33
REMARK   15  A    between atoms: _38  and  _39
REMARK   16  A    between atoms: _41  and  _43
REMARK   17  A    between atoms: _43  and  _44
REMARK   18  A    between atoms: _43  and  _46
REMARK   19  A    between atoms: _46  and  _47
REMARK   20  A    between atoms: _53  and  _55
REMARK   21  A    between atoms: _55  and  _56
REMARK   22  A    between atoms: _55  and  _58
REMARK   23  A    between atoms: _61  and  _63
REMARK   24  A    between atoms: _63  and  _64
REMARK   25  A    between atoms: _63  and  _66
REMARK   26  A    between atoms: _66  and  _67
REMARK   27  A    between atoms: _70  and  _72
REMARK   28  A    between atoms: _72  and  _73
REMARK   29  A    between atoms: _72  and  _75
REMARK   30  A    between atoms: _75  and  _76
REMARK   31  A    between atoms: _81  and  _82
REMARK   32  A    between atoms: _84  and  _86
REMARK   33  A    between atoms: _86  and  _87
REMARK   34  A    between atoms: _86  and  _89
REMARK   35  A    between atoms: _89  and  _90
REMARK   36  A    between atoms: _90  and  _91
REMARK   37  A    between atoms: _93  and  _95
REMARK   38  A    between atoms: _95  and  _96
REMARK   39  A    between atoms: _95  and  _98
REMARK   40  A    between atoms: _98  and  _99
REMARK   41  A    between atoms: _99  and  _100
REMARK   42  A    between atoms: _103  and  _105
REMARK   43  A    between atoms: _105  and  _106
REMARK   44  A    between atoms: _105  and  _108
REMARK   45  A    between atoms: _111  and  _113
REMARK   46  A    between atoms: _113  and  _114
REMARK   47  A    between atoms: _113  and  _116
REMARK   48  A    between atoms: _119  and  _121
REMARK   49  A    between atoms: _121  and  _122
REMARK   50  A    between atoms: _121  and  _124
REMARK   51  A    between atoms: _124  and  _125
REMARK   52  A    between atoms: _131  and  _133
REMARK   53  A    between atoms: _133  and  _134
REMARK   54  A    between atoms: _133  and  _136
REMARK   55  A    between atoms: _139  and  _141
REMARK   56  A    between atoms: _141  and  _142
REMARK   57  A    between atoms: _141  and  _144
REMARK   58  A    between atoms: _144  and  _145
REMARK   59  A    between atoms: _150  and  _151
REMARK   60  A    between atoms: _153  and  _155
REMARK   61  A    between atoms: _155  and  _156
REMARK   62  A    between atoms: _155  and  _158
REMARK   63  A    between atoms: _158  and  _159
REMARK   64  A    between atoms: _159  and  _160
REMARK   65  A    between atoms: _162  and  _164
REMARK   66  A    between atoms: _164  and  _165
REMARK   67  A    between atoms: _164  and  _167
REMARK   68  A    between atoms: _167  and  _168
REMARK   69  A    between atoms: _168  and  _169
REMARK   70  A    between atoms: _172  and  _174
REMARK   71  A    between atoms: _174  and  _175
REMARK   72  A    between atoms: _174  and  _177
REMARK   73  A    between atoms: _177  and  _178
REMARK   74  A    between atoms: _178  and  _179
REMARK   75  A    between atoms: _182  and  _184
REMARK   76  A    between atoms: _184  and  _185
REMARK   77  A    between atoms: _184  and  _187
REMARK   78  A    between atoms: _187  and  _188
REMARK   79  A    between atoms: _193  and  _194
REMARK   80  A    between atoms: _196  and  _198
REMARK   81  A    between atoms: _198  and  _199
REMARK   82  A    between atoms: _198  and  _201
REMARK   83  A    between atoms: _201  and  _202
REMARK   84  A    between atoms: _212  and  _214
REMARK   85  A    between atoms: _214  and  _215
REMARK   86  A    between atoms: _214  and  _217
REMARK   87  A    between atoms: _217  and  _218
REMARK   88  A    between atoms: _218  and  _219
REMARK   89  A    between atoms: _222  and  _224
REMARK   90  A    between atoms: _224  and  _225
REMARK   91  A    between atoms: _224  and  _227
REMARK   92  A    between atoms: _227  and  _228
REMARK   93  A    between atoms: _228  and  _229
REMARK   94  A    between atoms: _229  and  _230
REMARK   95  A    between atoms: _239  and  _241
REMARK   96  A    between atoms: _241  and  _242
REMARK   97  A    between atoms: _241  and  _244
REMARK   98  A    between atoms: _244  and  _245
REMARK   99  A    between atoms: _245  and  _246
REMARK  100  A    between atoms: _249  and  _251
REMARK  101  A    between atoms: _251  and  _252
REMARK  102  A    between atoms: _251  and  _254
REMARK  103  A    between atoms: _254  and  _255
REMARK  104  A    between atoms: _258  and  _260
REMARK  105  A    between atoms: _260  and  _261
REMARK  106  A    between atoms: _260  and  _263
REMARK  107  A    between atoms: _263  and  _264
REMARK  108  A    between atoms: _264  and  _265
REMARK  109  A    between atoms: _270  and  _272
REMARK  110  A    between atoms: _272  and  _273
REMARK  111  A    between atoms: _272  and  _275
REMARK  112  A    between atoms: _275  and  _276
REMARK  113  A    between atoms: _276  and  _277
REMARK  114  A    between atoms: _277  and  _278
REMARK  115  A    between atoms: _278  and  _279
REMARK  116  A    between atoms: _283  and  _285
REMARK  117  A    between atoms: _285  and  _286
REMARK  118  A    between atoms: _289  and  _291
REMARK  119  A    between atoms: _291  and  _292
REMARK  120  A    between atoms: _294  and  _296
REMARK  121  A    between atoms: _296  and  _297
REMARK  122  A    between atoms: _296  and  _299
REMARK  123  A    between atoms: _299  and  _300
REMARK  124  A    between atoms: _305  and  _307
REMARK  125  A    between atoms: _307  and  _308
REMARK  126  A    between atoms: _307  and  _310
REMARK  127  A    between atoms: _310  and  _311
REMARK  128  A    between atoms: _311  and  _312
REMARK  129  A    between atoms: _315  and  _317
REMARK  130  A    between atoms: _317  and  _318
REMARK  131  A    between atoms: _317  and  _320
REMARK  132  A    between atoms: _320  and  _321
REMARK  133  A    between atoms: _323  and  _325
REMARK  134  A    between atoms: _325  and  _326
REMARK  135  A    between atoms: _325  and  _328
REMARK  136  A    between atoms: _328  and  _329
REMARK  137  A    between atoms: _335  and  _337
REMARK  138  A    between atoms: _337  and  _338
REMARK  139  A    between atoms: _337  and  _340
REMARK  140  A    between atoms: _343  and  _345
REMARK  141  A    between atoms: _345  and  _346
REMARK  142  A    between atoms: _345  and  _348
REMARK  143  A    between atoms: _348  and  _349
REMARK  144  A    between atoms: _352  and  _354
REMARK  145  A    between atoms: _354  and  _355
REMARK  146  A    between atoms: _354  and  _357
REMARK  147  A    between atoms: _357  and  _358
REMARK  148  A    between atoms: _361  and  _363
REMARK  149  A    between atoms: _363  and  _364
REMARK  150  A    between atoms: _363  and  _366
REMARK  151  A    between atoms: _366  and  _367
REMARK  152  A    between atoms: _370  and  _372
REMARK  153  A    between atoms: _372  and  _373
REMARK  154  A    between atoms: _372  and  _375
REMARK  155  A    between atoms: _375  and  _376
REMARK  156  A    between atoms: _379  and  _381
REMARK  157  A    between atoms: _381  and  _382
REMARK  158  A    between atoms: _381  and  _384
REMARK  159  A    between atoms: _384  and  _385
REMARK  160  A    between atoms: _390  and  _391
REMARK  161  A    between atoms: _393  and  _395
REMARK  162  A    between atoms: _395  and  _396
REMARK  163  A    between atoms: _395  and  _398
REMARK  164  A    between atoms: _398  and  _399
REMARK  165  A    between atoms: _404  and  _405
REMARK  166  A    between atoms: _407  and  _409
REMARK  167  A    between atoms: _409  and  _410
REMARK  168  A    between atoms: _409  and  _412
REMARK  169  A    between atoms: _412  and  _413
REMARK  170  A    between atoms: _416  and  _418
REMARK  171  A    between atoms: _418  and  _419
REMARK  172  A    between atoms: _418  and  _421
REMARK  173  A    between atoms: _421  and  _422
REMARK  174  A    between atoms: _422  and  _423
REMARK  175  A    between atoms: _428  and  _430
REMARK  176  A    between atoms: _430  and  _431
REMARK  177  A    between atoms: _430  and  _433
REMARK  178  A    between atoms: _436  and  _438
REMARK  179  A    between atoms: _438  and  _439
REMARK  180  A    between atoms: _438  and  _441
REMARK  181  A    between atoms: _441  and  _442
REMARK  182  A    between atoms: _445  and  _447
REMARK  183  A    between atoms: _447  and  _448
REMARK  184  A    between atoms: _447  and  _450
REMARK  185  A    between atoms: _450  and  _451
REMARK  186  A    between atoms: _453  and  _455
REMARK  187  A    between atoms: _455  and  _456
REMARK  188  A    between atoms: _458  and  _460
REMARK  189  A    between atoms: _460  and  _461
REMARK  190  A    between atoms: _460  and  _463
REMARK  191  A    between atoms: _463  and  _464
REMARK  192  A    between atoms: _464  and  _790
REMARK  193  A    between atoms: _465  and  _467
REMARK  194  A    between atoms: _467  and  _468
REMARK  195  A    between atoms: _467  and  _470
REMARK  196  A    between atoms: _470  and  _471
REMARK  197  A    between atoms: _476  and  _477
REMARK  198  A    between atoms: _479  and  _481
REMARK  199  A    between atoms: _481  and  _482
REMARK  200  A    between atoms: _481  and  _484
REMARK  201  A    between atoms: _484  and  _485
REMARK  202  A    between atoms: _485  and  _486
REMARK  203  A    between atoms: _491  and  _493
REMARK  204  A    between atoms: _493  and  _494
REMARK  205  A    between atoms: _493  and  _496
REMARK  206  A    between atoms: _496  and  _497
REMARK  207  A    between atoms: _497  and  _498
REMARK  208  A    between atoms: _503  and  _505
REMARK  209  A    between atoms: _505  and  _506
REMARK  210  A    between atoms: _505  and  _508
REMARK  211  A    between atoms: _508  and  _509
REMARK  212  A    between atoms: _514  and  _515
REMARK  213  A    between atoms: _517  and  _519
REMARK  214  A    between atoms: _519  and  _520
REMARK  215  A    between atoms: _523  and  _525
REMARK  216  A    between atoms: _525  and  _526
REMARK  217  A    between atoms: _525  and  _528
REMARK  218  A    between atoms: _528  and  _529
REMARK  219  A    between atoms: _534  and  _535
REMARK  220  A    between atoms: _537  and  _539
REMARK  221  A    between atoms: _539  and  _540
REMARK  222  A    between atoms: _539  and  _542
REMARK  223  A    between atoms: _542  and  _543
REMARK  224  A    between atoms: _548  and  _549
REMARK  225  A    between atoms: _551  and  _553
REMARK  226  A    between atoms: _553  and  _554
REMARK  227  A    between atoms: _553  and  _556
REMARK  228  A    between atoms: _556  and  _557
REMARK  229  A    between atoms: _560  and  _562
REMARK  230  A    between atoms: _562  and  _563
REMARK  231  A    between atoms: _562  and  _565
REMARK  232  A    between atoms: _565  and  _566
REMARK  233  A    between atoms: _576  and  _578
REMARK  234  A    between atoms: _578  and  _579
REMARK  235  A    between atoms: _582  and  _584
REMARK  236  A    between atoms: _584  and  _585
REMARK  237  A    between atoms: _588  and  _590
REMARK  238  A    between atoms: _590  and  _591
REMARK  239  A    between atoms: _590  and  _593
REMARK  240  A    between atoms: _593  and  _594
REMARK  241  A    between atoms: _597  and  _599
REMARK  242  A    between atoms: _599  and  _600
REMARK  243  A    between atoms: _599  and  _602
REMARK  244  A    between atoms: _602  and  _603
REMARK  245  A    between atoms: _606  and  _608
REMARK  246  A    between atoms: _608  and  _609
REMARK  247  A    between atoms: _608  and  _611
REMARK  248  A    between atoms: _611  and  _612
REMARK  249  A    between atoms: _615  and  _617
REMARK  250  A    between atoms: _617  and  _618
REMARK  251  A    between atoms: _617  and  _620
REMARK  252  A    between atoms: _620  and  _621
REMARK  253  A    between atoms: _621  and  _622
REMARK  254  A    between atoms: _622  and  _623
REMARK  255  A    between atoms: _623  and  _624
REMARK  256  A    between atoms: _628  and  _630
REMARK  257  A    between atoms: _630  and  _631
REMARK  258  A    between atoms: _630  and  _633
REMARK  259  A    between atoms: _633  and  _634
REMARK  260  A    between atoms: _639  and  _641
REMARK  261  A    between atoms: _641  and  _642
REMARK  262  A    between atoms: _641  and  _644
REMARK  263  A    between atoms: _644  and  _645
REMARK  264  A    between atoms: _645  and  _646
REMARK  265  A    between atoms: _646  and  _647
REMARK  266  A    between atoms: _647  and  _648
REMARK  267  A    between atoms: _652  and  _654
REMARK  268  A    between atoms: _654  and  _655
REMARK  269  A    between atoms: _654  and  _657
REMARK  270  A    between atoms: _657  and  _658
REMARK  271  A    between atoms: _668  and  _670
REMARK  272  A    between atoms: _670  and  _671
REMARK  273  A    between atoms: _674  and  _676
REMARK  274  A    between atoms: _676  and  _677
REMARK  275  A    between atoms: _679  and  _681
REMARK  276  A    between atoms: _681  and  _682
REMARK  277  A    between atoms: _685  and  _687
REMARK  278  A    between atoms: _687  and  _688
REMARK  279  A    between atoms: _691  and  _693
REMARK  280  A    between atoms: _693  and  _694
REMARK  281  A    between atoms: _693  and  _696
REMARK  282  A    between atoms: _696  and  _697
REMARK  283  A    between atoms: _697  and  _698
REMARK  284  A    between atoms: _701  and  _703
REMARK  285  A    between atoms: _703  and  _704
REMARK  286  A    between atoms: _703  and  _706
REMARK  287  A    between atoms: _706  and  _707
REMARK  288  A    between atoms: _712  and  _713
REMARK  289  A    between atoms: _715  and  _717
REMARK  290  A    between atoms: _717  and  _718
REMARK  291  A    between atoms: _717  and  _720
REMARK  292  A    between atoms: _720  and  _721
REMARK  293  A    between atoms: _726  and  _727
REMARK  294  A    between atoms: _729  and  _731
REMARK  295  A    between atoms: _731  and  _732
REMARK  296  A    between atoms: _731  and  _734
REMARK  297  A    between atoms: _734  and  _735
REMARK  298  A    between atoms: _735  and  _736
REMARK  299  A    between atoms: _736  and  _737
REMARK  300  A    between atoms: _746  and  _748
REMARK  301  A    between atoms: _748  and  _749
REMARK  302  A    between atoms: _752  and  _754
REMARK  303  A    between atoms: _754  and  _755
REMARK  304  A    between atoms: _754  and  _757
REMARK  305  A    between atoms: _757  and  _758
REMARK  306  A    between atoms: _763  and  _764
REMARK  307  A    between atoms: _766  and  _768
REMARK  308  A    between atoms: _768  and  _769
REMARK  309  A    between atoms: _768  and  _771
REMARK  310  A    between atoms: _771  and  _772
REMARK  311  A    between atoms: _775  and  _777
REMARK  312  A    between atoms: _777  and  _778
REMARK  313  A    between atoms: _777  and  _780
REMARK  314  A    between atoms: _780  and  _781
REMARK  315  A    between atoms: _784  and  _786
REMARK  316  A    between atoms: _786  and  _787
REMARK  317  A    between atoms: _786  and  _789
REMARK  318  A    between atoms: _789  and  _790
REMARK  319  A    between atoms: _791  and  _793
REMARK  320  A    between atoms: _793  and  _794
REMARK  321  A    between atoms: _793  and  _796
REMARK  322  A    between atoms: _799  and  _801
REMARK  323  A    between atoms: _801  and  _802
REMARK  324  A    between atoms: _801  and  _804
REMARK  325  A    between atoms: _804  and  _805
REMARK  326  A    between atoms: _805  and  _806
REMARK  327  A    between atoms: _809  and  _811
REMARK  328  A    between atoms: _811  and  _812
REMARK  329  A    between atoms: _811  and  _814
REMARK  330  A    between atoms: _814  and  _815
REMARK  331  A    between atoms: _825  and  _827
REMARK  332  A    between atoms: _827  and  _828
REMARK  333  A    between atoms: _827  and  _830
REMARK  334  A    between atoms: _830  and  _831
REMARK  335  A    between atoms: _834  and  _836
REMARK  336  A    between atoms: _836  and  _837
REMARK  337  A    between atoms: _836  and  _839
REMARK  338  A    between atoms: _839  and  _840
REMARK  339  A    between atoms: _840  and  _841
REMARK  340  A    between atoms: _841  and  _842
REMARK  341  A    between atoms: _851  and  _853
REMARK  342  A    between atoms: _853  and  _854
REMARK  343  A    between atoms: _853  and  _856
REMARK  344  A    between atoms: _856  and  _857
REMARK  345  A    between atoms: _862  and  _863
REMARK                            x       y       z     vdW  Elec       q    Type
REMARK                         _______ _______ _______ _____ _____    ______ ____
ROOT
ATOM      1  O   HOH     1      40.718  65.570 -18.130  0.00  0.00    +0.000 OA
ENDROOT
TORSDOF 0
REMARK  Name = ../refined-set-2016/1fzj/1fzj_pocket.pdb
REMARK  345 active torsions:
REMARK  status: ('A' for Active; 'I' for Inactive)
REMARK    1  A    between atoms: _1  and  _3
REMARK    2  A    between atoms: _3  and  _4
REMARK    3  A    between atoms: _3  and  _6
REMARK    4  A    between atoms: _6  and  _7
REMARK    5  A    between atoms: _10  and  _12
REMARK    6  A    between atoms: _12  and  _13
REMARK    7  A    between atoms: _12  and  _15
REMARK    8  A    between atoms: _15  and  _16
REMARK    9  A    between atoms: _16  and  _17
REMARK   10  A    between atoms: _17  and  _18
REMARK   11  A    between atoms: _27  and  _29
REMARK   12  A    between atoms: _29  and  _30
REMARK   13  A    between atoms: _29  and  _32
REMARK   14  A    between atoms: _32  and  _33
REMARK   15  A    between atoms: _38  and  _39
REMARK   16  A    between atoms: _41  and  _43
REMARK   17  A    between atoms: _43  and  _44
REMARK   18  A    between atoms: _43  and  _46
REMARK   19  A    between atoms: _46  and  _47
REMARK   20  A    between atoms: _53  and  _55
REMARK   21  A    between atoms: _55  and  _56
REMARK   22  A    between atoms: _55  and  _58
REMARK   23  A    between atoms: _61  and  _63
REMARK   24  A    between atoms: _63  and  _64
REMARK   25  A    between atoms: _63  and  _66
REMARK   26  A    between atoms: _66  and  _67
REMARK   27  A    between atoms: _70  and  _72
REMARK   28  A    between atoms: _72  and  _73
REMARK   29  A    between atoms: _72  and  _75
REMARK   30  A    between atoms: _75  and  _76
REMARK   31  A    between atoms: _81  and  _82
REMARK   32  A    between atoms: _84  and  _86
REMARK   33  A    between atoms: _86  and  _87
REMARK   34  A    between atoms: _86  and  _89
REMARK   35  A    between atoms: _89  and  _90
REMARK   36  A    between atoms: _90  and  _91
REMARK   37  A    between atoms: _93  and  _95
REMARK   38  A    between atoms: _95  and  _96
REMARK   39  A    between atoms: _95  and  _98
REMARK   40  A    between atoms: _98  and  _99
REMARK   41  A    between atoms: _99  and  _100
REMARK   42  A    between atoms: _103  and  _105
REMARK   43  A    between atoms: _105  and  _106
REMARK   44  A    between atoms: _105  and  _108
REMARK   45  A    between atoms: _111  and  _113
REMARK   46  A    between atoms: _113  and  _114
REMARK   47  A    between atoms: _113  and  _116
REMARK   48  A    between atoms: _119  and  _121
REMARK   49  A    between atoms: _121  and  _122
REMARK   50  A    between atoms: _121  and  _124
REMARK   51  A    between atoms: _124  and  _125
REMARK   52  A    between atoms: _131  and  _133
REMARK   53  A    between atoms: _133  and  _134
REMARK   54  A    between atoms: _133  and  _136
REMARK   55  A    between atoms: _139  and  _141
REMARK   56  A    between atoms: _141  and  _142
REMARK   57  A    between atoms: _141  and  _144
REMARK   58  A    between atoms: _144  and  _145
REMARK   59  A    between atoms: _150  and  _151
REMARK   60  A    between atoms: _153  and  _155
REMARK   61  A    between atoms: _155  and  _156
REMARK   62  A    between atoms: _155  and  _158
REMARK   63  A    between atoms: _158  and  _159
REMARK   64  A    between atoms: _159  and  _160
REMARK   65  A    between atoms: _162  and  _164
REMARK   66  A    between atoms: _164  and  _165
REMARK   67  A    between atoms: _164  and  _167
REMARK   68  A    between atoms: _167  and  _168
REMARK   69  A    between atoms: _168  and  _169
REMARK   70  A    between atoms: _172  and  _174
REMARK   71  A    between atoms: _174  and  _175
REMARK   72  A    between atoms: _174  and  _177
REMARK   73  A    between atoms: _177  and  _178
REMARK   74  A    between atoms: _178  and  _179
REMARK   75  A    between atoms: _182  and  _184
REMARK   76  A    between atoms: _184  and  _185
REMARK   77  A    between atoms: _184  and  _187
REMARK   78  A    between atoms: _187  and  _188
REMARK   79  A    between atoms: _193  and  _194
REMARK   80  A    between atoms: _196  and  _198
REMARK   81  A    between atoms: _198  and  _199
REMARK   82  A    between atoms: _198  and  _201
REMARK   83  A    between atoms: _201  and  _202
REMARK   84  A    between atoms: _212  and  _214
REMARK   85  A    between atoms: _214  and  _215
REMARK   86  A    between atoms: _214  and  _217
REMARK   87  A    between atoms: _217  and  _218
REMARK   88  A    between atoms: _218  and  _219
REMARK   89  A    between atoms: _222  and  _224
REMARK   90  A    between atoms: _224  and  _225
REMARK   91  A    between atoms: _224  and  _227
REMARK   92  A    between atoms: _227  and  _228
REMARK   93  A    between atoms: _228  and  _229
REMARK   94  A    between atoms: _229  and  _230
REMARK   95  A    between atoms: _239  and  _241
REMARK   96  A    between atoms: _241  and  _242
REMARK   97  A    between atoms: _241  and  _244
REMARK   98  A    between atoms: _244  and  _245
REMARK   99  A    between atoms: _245  and  _246
REMARK  100  A    between atoms: _249  and  _251
REMARK  101  A    between atoms: _251  and  _252
REMARK  102  A    between atoms: _251  and  _254
REMARK  103  A    between atoms: _254  and  _255
REMARK  104  A    between atoms: _258  and  _260
REMARK  105  A    between atoms: _260  and  _261
REMARK  106  A    between atoms: _260  and  _263
REMARK  107  A    between atoms: _263  and  _264
REMARK  108  A    between atoms: _264  and  _265
REMARK  109  A    between atoms: _270  and  _272
REMARK  110  A    between atoms: _272  and  _273
REMARK  111  A    between atoms: _272  and  _275
REMARK  112  A    between atoms: _275  and  _276
REMARK  113  A    between atoms: _276  and  _277
REMARK  114  A    between atoms: _277  and  _278
REMARK  115  A    between atoms: _278  and  _279
REMARK  116  A    between atoms: _283  and  _285
REMARK  117  A    between atoms: _285  and  _286
REMARK  118  A    between atoms: _289  and  _291
REMARK  119  A    between atoms: _291  and  _292
REMARK  120  A    between atoms: _294  and  _296
REMARK  121  A    between atoms: _296  and  _297
REMARK  122  A    between atoms: _296  and  _299
REMARK  123  A    between atoms: _299  and  _300
REMARK  124  A    between atoms: _305  and  _307
REMARK  125  A    between atoms: _307  and  _308
REMARK  126  A    between atoms: _307  and  _310
REMARK  127  A    between atoms: _310  and  _311
REMARK  128  A    between atoms: _311  and  _312
REMARK  129  A    between atoms: _315  and  _317
REMARK  130  A    between atoms: _317  and  _318
REMARK  131  A    between atoms: _317  and  _320
REMARK  132  A    between atoms: _320  and  _321
REMARK  133  A    between atoms: _323  and  _325
REMARK  134  A    between atoms: _325  and  _326
REMARK  135  A    between atoms: _325  and  _328
REMARK  136  A    between atoms: _328  and  _329
REMARK  137  A    between atoms: _335  and  _337
REMARK  138  A    between atoms: _337  and  _338
REMARK  139  A    between atoms: _337  and  _340
REMARK  140  A    between atoms: _343  and  _345
REMARK  141  A    between atoms: _345  and  _346
REMARK  142  A    between atoms: _345  and  _348
REMARK  143  A    between atoms: _348  and  _349
REMARK  144  A    between atoms: _352  and  _354
REMARK  145  A    between atoms: _354  and  _355
REMARK  146  A    between atoms: _354  and  _357
REMARK  147  A    between atoms: _357  and  _358
REMARK  148  A    between atoms: _361  and  _363
REMARK  149  A    between atoms: _363  and  _364
REMARK  150  A    between atoms: _363  and  _366
REMARK  151  A    between atoms: _366  and  _367
REMARK  152  A    between atoms: _370  and  _372
REMARK  153  A    between atoms: _372  and  _373
REMARK  154  A    between atoms: _372  and  _375
REMARK  155  A    between atoms: _375  and  _376
REMARK  156  A    between atoms: _379  and  _381
REMARK  157  A    between atoms: _381  and  _382
REMARK  158  A    between atoms: _381  and  _384
REMARK  159  A    between atoms: _384  and  _385
REMARK  160  A    between atoms: _390  and  _391
REMARK  161  A    between atoms: _393  and  _395
REMARK  162  A    between atoms: _395  and  _396
REMARK  163  A    between atoms: _395  and  _398
REMARK  164  A    between atoms: _398  and  _399
REMARK  165  A    between atoms: _404  and  _405
REMARK  166  A    between atoms: _407  and  _409
REMARK  167  A    between atoms: _409  and  _410
REMARK  168  A    between atoms: _409  and  _412
REMARK  169  A    between atoms: _412  and  _413
REMARK  170  A    between atoms: _416  and  _418
REMARK  171  A    between atoms: _418  and  _419
REMARK  172  A    between atoms: _418  and  _421
REMARK  173  A    between atoms: _421  and  _422
REMARK  174  A    between atoms: _422  and  _423
REMARK  175  A    between atoms: _428  and  _430
REMARK  176  A    between atoms: _430  and  _431
REMARK  177  A    between atoms: _430  and  _433
REMARK  178  A    between atoms: _436  and  _438
REMARK  179  A    between atoms: _438  and  _439
REMARK  180  A    between atoms: _438  and  _441
REMARK  181  A    between atoms: _441  and  _442
REMARK  182  A    between atoms: _445  and  _447
REMARK  183  A    between atoms: _447  and  _448
REMARK  184  A    between atoms: _447  and  _450
REMARK  185  A    between atoms: _450  and  _451
REMARK  186  A    between atoms: _453  and  _455
REMARK  187  A    between atoms: _455  and  _456
REMARK  188  A    between atoms: _458  and  _460
REMARK  189  A    between atoms: _460  and  _461
REMARK  190  A    between atoms: _460  and  _463
REMARK  191  A    between atoms: _463  and  _464
REMARK  192  A    between atoms: _464  and  _790
REMARK  193  A    between atoms: _465  and  _467
REMARK  194  A    between atoms: _467  and  _468
REMARK  195  A    between atoms: _467  and  _470
REMARK  196  A    between atoms: _470  and  _471
REMARK  197  A    between atoms: _476  and  _477
REMARK  198  A    between atoms: _479  and  _481
REMARK  199  A    between atoms: _481  and  _482
REMARK  200  A    between atoms: _481  and  _484
REMARK  201  A    between atoms: _484  and  _485
REMARK  202  A    between atoms: _485  and  _486
REMARK  203  A    between atoms: _491  and  _493
REMARK  204  A    between atoms: _493  and  _494
REMARK  205  A    between atoms: _493  and  _496
REMARK  206  A    between atoms: _496  and  _497
REMARK  207  A    between atoms: _497  and  _498
REMARK  208  A    between atoms: _503  and  _505
REMARK  209  A    between atoms: _505  and  _506
REMARK  210  A    between atoms: _505  and  _508
REMARK  211  A    between atoms: _508  and  _509
REMARK  212  A    between atoms: _514  and  _515
REMARK  213  A    between atoms: _517  and  _519
REMARK  214  A    between atoms: _519  and  _520
REMARK  215  A    between atoms: _523  and  _525
REMARK  216  A    between atoms: _525  and  _526
REMARK  217  A    between atoms: _525  and  _528
REMARK  218  A    between atoms: _528  and  _529
REMARK  219  A    between atoms: _534  and  _535
REMARK  220  A    between atoms: _537  and  _539
REMARK  221  A    between atoms: _539  and  _540
REMARK  222  A    between atoms: _539  and  _542
REMARK  223  A    between atoms: _542  and  _543
REMARK  224  A    between atoms: _548  and  _549
REMARK  225  A    between atoms: _551  and  _553
REMARK  226  A    between atoms: _553  and  _554
REMARK  227  A    between atoms: _553  and  _556
REMARK  228  A    between atoms: _556  and  _557
REMARK  229  A    between atoms: _560  and  _562
REMARK  230  A    between atoms: _562  and  _563
REMARK  231  A    between atoms: _562  and  _565
REMARK  232  A    between atoms: _565  and  _566
REMARK  233  A    between atoms: _576  and  _578
REMARK  234  A    between atoms: _578  and  _579
REMARK  235  A    between atoms: _582  and  _584
REMARK  236  A    between atoms: _584  and  _585
REMARK  237  A    between atoms: _588  and  _590
REMARK  238  A    between atoms: _590  and  _591
REMARK  239  A    between atoms: _590  and  _593
REMARK  240  A    between atoms: _593  and  _594
REMARK  241  A    between atoms: _597  and  _599
REMARK  242  A    between atoms: _599  and  _600
REMARK  243  A    between atoms: _599  and  _602
REMARK  244  A    between atoms: _602  and  _603
REMARK  245  A    between atoms: _606  and  _608
REMARK  246  A    between atoms: _608  and  _609
REMARK  247  A    between atoms: _608  and  _611
REMARK  248  A    between atoms: _611  and  _612
REMARK  249  A    between atoms: _615  and  _617
REMARK  250  A    between atoms: _617  and  _618
REMARK  251  A    between atoms: _617  and  _620
REMARK  252  A    between atoms: _620  and  _621
REMARK  253  A    between atoms: _621  and  _622
REMARK  254  A    between atoms: _622  and  _623
REMARK  255  A    between atoms: _623  and  _624
REMARK  256  A    between atoms: _628  and  _630
REMARK  257  A    between atoms: _630  and  _631
REMARK  258  A    between atoms: _630  and  _633
REMARK  259  A    between atoms: _633  and  _634
REMARK  260  A    between atoms: _639  and  _641
REMARK  261  A    between atoms: _641  and  _642
REMARK  262  A    between atoms: _641  and  _644
REMARK  263  A    between atoms: _644  and  _645
REMARK  264  A    between atoms: _645  and  _646
REMARK  265  A    between atoms: _646  and  _647
REMARK  266  A    between atoms: _647  and  _648
REMARK  267  A    between atoms: _652  and  _654
REMARK  268  A    between atoms: _654  and  _655
REMARK  269  A    between atoms: _654  and  _657
REMARK  270  A    between atoms: _657  and  _658
REMARK  271  A    between atoms: _668  and  _670
REMARK  272  A    between atoms: _670  and  _671
REMARK  273  A    between atoms: _674  and  _676
REMARK  274  A    between atoms: _676  and  _677
REMARK  275  A    between atoms: _679  and  _681
REMARK  276  A    between atoms: _681  and  _682
REMARK  277  A    between atoms: _685  and  _687
REMARK  278  A    between atoms: _687  and  _688
REMARK  279  A    between atoms: _691  and  _693
REMARK  280  A    between atoms: _693  and  _694
REMARK  281  A    between atoms: _693  and  _696
REMARK  282  A    between atoms: _696  and  _697
REMARK  283  A    between atoms: _697  and  _698
REMARK  284  A    between atoms: _701  and  _703
REMARK  285  A    between atoms: _703  and  _704
REMARK  286  A    between atoms: _703  and  _706
REMARK  287  A    between atoms: _706  and  _707
REMARK  288  A    between atoms: _712  and  _713
REMARK  289  A    between atoms: _715  and  _717
REMARK  290  A    between atoms: _717  and  _718
REMARK  291  A    between atoms: _717  and  _720
REMARK  292  A    between atoms: _720  and  _721
REMARK  293  A    between atoms: _726  and  _727
REMARK  294  A    between atoms: _729  and  _731
REMARK  295  A    between atoms: _731  and  _732
REMARK  296  A    between atoms: _731  and  _734
REMARK  297  A    between atoms: _734  and  _735
REMARK  298  A    between atoms: _735  and  _736
REMARK  299  A    between atoms: _736  and  _737
REMARK  300  A    between atoms: _746  and  _748
REMARK  301  A    between atoms: _748  and  _749
REMARK  302  A    between atoms: _752  and  _754
REMARK  303  A    between atoms: _754  and  _755
REMARK  304  A    between atoms: _754  and  _757
REMARK  305  A    between atoms: _757  and  _758
REMARK  306  A    between atoms: _763  and  _764
REMARK  307  A    between atoms: _766  and  _768
REMARK  308  A    between atoms: _768  and  _769
REMARK  309  A    between atoms: _768  and  _771
REMARK  310  A    between atoms: _771  and  _772
REMARK  311  A    between atoms: _775  and  _777
REMARK  312  A    between atoms: _777  and  _778
REMARK  313  A    between atoms: _777  and  _780
REMARK  314  A    between atoms: _780  and  _781
REMARK  315  A    between atoms: _784  and  _786
REMARK  316  A    between atoms: _786  and  _787
REMARK  317  A    between atoms: _786  and  _789
REMARK  318  A    between atoms: _789  and  _790
REMARK  319  A    between atoms: _791  and  _793
REMARK  320  A    between atoms: _793  and  _794
REMARK  321  A    between atoms: _793  and  _796
REMARK  322  A    between atoms: _799  and  _801
REMARK  323  A    between atoms: _801  and  _802
REMARK  324  A    between atoms: _801  and  _804
REMARK  325  A    between atoms: _804  and  _805
REMARK  326  A    between atoms: _805  and  _806
REMARK  327  A    between atoms: _809  and  _811
REMARK  328  A    between atoms: _811  and  _812
REMARK  329  A    between atoms: _811  and  _814
REMARK  330  A    between atoms: _814  and  _815
REMARK  331  A    between atoms: _825  and  _827
REMARK  332  A    between atoms: _827  and  _828
REMARK  333  A    between atoms: _827  and  _830
REMARK  334  A    between atoms: _830  and  _831
REMARK  335  A    between atoms: _834  and  _836
REMARK  336  A    between atoms: _836  and  _837
REMARK  337  A    between atoms: _836  and  _839
REMARK  338  A    between atoms: _839  and  _840
REMARK  339  A    between atoms: _840  and  _841
REMARK  340  A    between atoms: _841  and  _842
REMARK  341  A    between atoms: _851  and  _853
REMARK  342  A    between atoms: _853  and  _854
REMARK  343  A    between atoms: _853  and  _856
REMARK  344  A    between atoms: _856  and  _857
REMARK  345  A    between atoms: _862  and  _863
REMARK                            x       y       z     vdW  Elec       q    Type
REMARK                         _______ _______ _______ _____ _____    ______ ____
ROOT
ATOM      1  O   HOH     1      28.931  58.203 -14.421  0.00  0.00    +0.000 OA
ENDROOT
TORSDOF 0
REMARK  Name = ../refined-set-2016/1fzj/1fzj_pocket.pdb
REMARK  345 active torsions:
REMARK  status: ('A' for Active; 'I' for Inactive)
REMARK    1  A    between atoms: _1  and  _3
REMARK    2  A    between atoms: _3  and  _4
REMARK    3  A    between atoms: _3  and  _6
REMARK    4  A    between atoms: _6  and  _7
REMARK    5  A    between atoms: _10  and  _12
REMARK    6  A    between atoms: _12  and  _13
REMARK    7  A    between atoms: _12  and  _15
REMARK    8  A    between atoms: _15  and  _16
REMARK    9  A    between atoms: _16  and  _17
REMARK   10  A    between atoms: _17  and  _18
REMARK   11  A    between atoms: _27  and  _29
REMARK   12  A    between atoms: _29  and  _30
REMARK   13  A    between atoms: _29  and  _32
REMARK   14  A    between atoms: _32  and  _33
REMARK   15  A    between atoms: _38  and  _39
REMARK   16  A    between atoms: _41  and  _43
REMARK   17  A    between atoms: _43  and  _44
REMARK   18  A    between atoms: _43  and  _46
REMARK   19  A    between atoms: _46  and  _47
REMARK   20  A    between atoms: _53  and  _55
REMARK   21  A    between atoms: _55  and  _56
REMARK   22  A    between atoms: _55  and  _58
REMARK   23  A    between atoms: _61  and  _63
REMARK   24  A    between atoms: _63  and  _64
REMARK   25  A    between atoms: _63  and  _66
REMARK   26  A    between atoms: _66  and  _67
REMARK   27  A    between atoms: _70  and  _72
REMARK   28  A    between atoms: _72  and  _73
REMARK   29  A    between atoms: _72  and  _75
REMARK   30  A    between atoms: _75  and  _76
REMARK   31  A    between atoms: _81  and  _82
REMARK   32  A    between atoms: _84  and  _86
REMARK   33  A    between atoms: _86  and  _87
REMARK   34  A    between atoms: _86  and  _89
REMARK   35  A    between atoms: _89  and  _90
REMARK   36  A    between atoms: _90  and  _91
REMARK   37  A    between atoms: _93  and  _95
REMARK   38  A    between atoms: _95  and  _96
REMARK   39  A    between atoms: _95  and  _98
REMARK   40  A    between atoms: _98  and  _99
REMARK   41  A    between atoms: _99  and  _100
REMARK   42  A    between atoms: _103  and  _105
REMARK   43  A    between atoms: _105  and  _106
REMARK   44  A    between atoms: _105  and  _108
REMARK   45  A    between atoms: _111  and  _113
REMARK   46  A    between atoms: _113  and  _114
REMARK   47  A    between atoms: _113  and  _116
REMARK   48  A    between atoms: _119  and  _121
REMARK   49  A    between atoms: _121  and  _122
REMARK   50  A    between atoms: _121  and  _124
REMARK   51  A    between atoms: _124  and  _125
REMARK   52  A    between atoms: _131  and  _133
REMARK   53  A    between atoms: _133  and  _134
REMARK   54  A    between atoms: _133  and  _136
REMARK   55  A    between atoms: _139  and  _141
REMARK   56  A    between atoms: _141  and  _142
REMARK   57  A    between atoms: _141  and  _144
REMARK   58  A    between atoms: _144  and  _145
REMARK   59  A    between atoms: _150  and  _151
REMARK   60  A    between atoms: _153  and  _155
REMARK   61  A    between atoms: _155  and  _156
REMARK   62  A    between atoms: _155  and  _158
REMARK   63  A    between atoms: _158  and  _159
REMARK   64  A    between atoms: _159  and  _160
REMARK   65  A    between atoms: _162  and  _164
REMARK   66  A    between atoms: _164  and  _165
REMARK   67  A    between atoms: _164  and  _167
REMARK   68  A    between atoms: _167  and  _168
REMARK   69  A    between atoms: _168  and  _169
REMARK   70  A    between atoms: _172  and  _174
REMARK   71  A    between atoms: _174  and  _175
REMARK   72  A    between atoms: _174  and  _177
REMARK   73  A    between atoms: _177  and  _178
REMARK   74  A    between atoms: _178  and  _179
REMARK   75  A    between atoms: _182  and  _184
REMARK   76  A    between atoms: _184  and  _185
REMARK   77  A    between atoms: _184  and  _187
REMARK   78  A    between atoms: _187  and  _188
REMARK   79  A    between atoms: _193  and  _194
REMARK   80  A    between atoms: _196  and  _198
REMARK   81  A    between atoms: _198  and  _199
REMARK   82  A    between atoms: _198  and  _201
REMARK   83  A    between atoms: _201  and  _202
REMARK   84  A    between atoms: _212  and  _214
REMARK   85  A    between atoms: _214  and  _215
REMARK   86  A    between atoms: _214  and  _217
REMARK   87  A    between atoms: _217  and  _218
REMARK   88  A    between atoms: _218  and  _219
REMARK   89  A    between atoms: _222  and  _224
REMARK   90  A    between atoms: _224  and  _225
REMARK   91  A    between atoms: _224  and  _227
REMARK   92  A    between atoms: _227  and  _228
REMARK   93  A    between atoms: _228  and  _229
REMARK   94  A    between atoms: _229  and  _230
REMARK   95  A    between atoms: _239  and  _241
REMARK   96  A    between atoms: _241  and  _242
REMARK   97  A    between atoms: _241  and  _244
REMARK   98  A    between atoms: _244  and  _245
REMARK   99  A    between atoms: _245  and  _246
REMARK  100  A    between atoms: _249  and  _251
REMARK  101  A    between atoms: _251  and  _252
REMARK  102  A    between atoms: _251  and  _254
REMARK  103  A    between atoms: _254  and  _255
REMARK  104  A    between atoms: _258  and  _260
REMARK  105  A    between atoms: _260  and  _261
REMARK  106  A    between atoms: _260  and  _263
REMARK  107  A    between atoms: _263  and  _264
REMARK  108  A    between atoms: _264  and  _265
REMARK  109  A    between atoms: _270  and  _272
REMARK  110  A    between atoms: _272  and  _273
REMARK  111  A    between atoms: _272  and  _275
REMARK  112  A    between atoms: _275  and  _276
REMARK  113  A    between atoms: _276  and  _277
REMARK  114  A    between atoms: _277  and  _278
REMARK  115  A    between atoms: _278  and  _279
REMARK  116  A    between atoms: _283  and  _285
REMARK  117  A    between atoms: _285  and  _286
REMARK  118  A    between atoms: _289  and  _291
REMARK  119  A    between atoms: _291  and  _292
REMARK  120  A    between atoms: _294  and  _296
REMARK  121  A    between atoms: _296  and  _297
REMARK  122  A    between atoms: _296  and  _299
REMARK  123  A    between atoms: _299  and  _300
REMARK  124  A    between atoms: _305  and  _307
REMARK  125  A    between atoms: _307  and  _308
REMARK  126  A    between atoms: _307  and  _310
REMARK  127  A    between atoms: _310  and  _311
REMARK  128  A    between atoms: _311  and  _312
REMARK  129  A    between atoms: _315  and  _317
REMARK  130  A    between atoms: _317  and  _318
REMARK  131  A    between atoms: _317  and  _320
REMARK  132  A    between atoms: _320  and  _321
REMARK  133  A    between atoms: _323  and  _325
REMARK  134  A    between atoms: _325  and  _326
REMARK  135  A    between atoms: _325  and  _328
REMARK  136  A    between atoms: _328  and  _329
REMARK  137  A    between atoms: _335  and  _337
REMARK  138  A    between atoms: _337  and  _338
REMARK  139  A    between atoms: _337  and  _340
REMARK  140  A    between atoms: _343  and  _345
REMARK  141  A    between atoms: _345  and  _346
REMARK  142  A    between atoms: _345  and  _348
REMARK  143  A    between atoms: _348  and  _349
REMARK  144  A    between atoms: _352  and  _354
REMARK  145  A    between atoms: _354  and  _355
REMARK  146  A    between atoms: _354  and  _357
REMARK  147  A    between atoms: _357  and  _358
REMARK  148  A    between atoms: _361  and  _363
REMARK  149  A    between atoms: _363  and  _364
REMARK  150  A    between atoms: _363  and  _366
REMARK  151  A    between atoms: _366  and  _367
REMARK  152  A    between atoms: _370  and  _372
REMARK  153  A    between atoms: _372  and  _373
REMARK  154  A    between atoms: _372  and  _375
REMARK  155  A    between atoms: _375  and  _376
REMARK  156  A    between atoms: _379  and  _381
REMARK  157  A    between atoms: _381  and  _382
REMARK  158  A    between atoms: _381  and  _384
REMARK  159  A    between atoms: _384  and  _385
REMARK  160  A    between atoms: _390  and  _391
REMARK  161  A    between atoms: _393  and  _395
REMARK  162  A    between atoms: _395  and  _396
REMARK  163  A    between atoms: _395  and  _398
REMARK  164  A    between atoms: _398  and  _399
REMARK  165  A    between atoms: _404  and  _405
REMARK  166  A    between atoms: _407  and  _409
REMARK  167  A    between atoms: _409  and  _410
REMARK  168  A    between atoms: _409  and  _412
REMARK  169  A    between atoms: _412  and  _413
REMARK  170  A    between atoms: _416  and  _418
REMARK  171  A    between atoms: _418  and  _419
REMARK  172  A    between atoms: _418  and  _421
REMARK  173  A    between atoms: _421  and  _422
REMARK  174  A    between atoms: _422  and  _423
REMARK  175  A    between atoms: _428  and  _430
REMARK  176  A    between atoms: _430  and  _431
REMARK  177  A    between atoms: _430  and  _433
REMARK  178  A    between atoms: _436  and  _438
REMARK  179  A    between atoms: _438  and  _439
REMARK  180  A    between atoms: _438  and  _441
REMARK  181  A    between atoms: _441  and  _442
REMARK  182  A    between atoms: _445  and  _447
REMARK  183  A    between atoms: _447  and  _448
REMARK  184  A    between atoms: _447  and  _450
REMARK  185  A    between atoms: _450  and  _451
REMARK  186  A    between atoms: _453  and  _455
REMARK  187  A    between atoms: _455  and  _456
REMARK  188  A    between atoms: _458  and  _460
REMARK  189  A    between atoms: _460  and  _461
REMARK  190  A    between atoms: _460  and  _463
REMARK  191  A    between atoms: _463  and  _464
REMARK  192  A    between atoms: _464  and  _790
REMARK  193  A    between atoms: _465  and  _467
REMARK  194  A    between atoms: _467  and  _468
REMARK  195  A    between atoms: _467  and  _470
REMARK  196  A    between atoms: _470  and  _471
REMARK  197  A    between atoms: _476  and  _477
REMARK  198  A    between atoms: _479  and  _481
REMARK  199  A    between atoms: _481  and  _482
REMARK  200  A    between atoms: _481  and  _484
REMARK  201  A    between atoms: _484  and  _485
REMARK  202  A    between atoms: _485  and  _486
REMARK  203  A    between atoms: _491  and  _493
REMARK  204  A    between atoms: _493  and  _494
REMARK  205  A    between atoms: _493  and  _496
REMARK  206  A    between atoms: _496  and  _497
REMARK  207  A    between atoms: _497  and  _498
REMARK  208  A    between atoms: _503  and  _505
REMARK  209  A    between atoms: _505  and  _506
REMARK  210  A    between atoms: _505  and  _508
REMARK  211  A    between atoms: _508  and  _509
REMARK  212  A    between atoms: _514  and  _515
REMARK  213  A    between atoms: _517  and  _519
REMARK  214  A    between atoms: _519  and  _520
REMARK  215  A    between atoms: _523  and  _525
REMARK  216  A    between atoms: _525  and  _526
REMARK  217  A    between atoms: _525  and  _528
REMARK  218  A    between atoms: _528  and  _529
REMARK  219  A    between atoms: _534  and  _535
REMARK  220  A    between atoms: _537  and  _539
REMARK  221  A    between atoms: _539  and  _540
REMARK  222  A    between atoms: _539  and  _542
REMARK  223  A    between atoms: _542  and  _543
REMARK  224  A    between atoms: _548  and  _549
REMARK  225  A    between atoms: _551  and  _553
REMARK  226  A    between atoms: _553  and  _554
REMARK  227  A    between atoms: _553  and  _556
REMARK  228  A    between atoms: _556  and  _557
REMARK  229  A    between atoms: _560  and  _562
REMARK  230  A    between atoms: _562  and  _563
REMARK  231  A    between atoms: _562  and  _565
REMARK  232  A    between atoms: _565  and  _566
REMARK  233  A    between atoms: _576  and  _578
REMARK  234  A    between atoms: _578  and  _579
REMARK  235  A    between atoms: _582  and  _584
REMARK  236  A    between atoms: _584  and  _585
REMARK  237  A    between atoms: _588  and  _590
REMARK  238  A    between atoms: _590  and  _591
REMARK  239  A    between atoms: _590  and  _593
REMARK  240  A    between atoms: _593  and  _594
REMARK  241  A    between atoms: _597  and  _599
REMARK  242  A    between atoms: _599  and  _600
REMARK  243  A    between atoms: _599  and  _602
REMARK  244  A    between atoms: _602  and  _603
REMARK  245  A    between atoms: _606  and  _608
REMARK  246  A    between atoms: _608  and  _609
REMARK  247  A    between atoms: _608  and  _611
REMARK  248  A    between atoms: _611  and  _612
REMARK  249  A    between atoms: _615  and  _617
REMARK  250  A    between atoms: _617  and  _618
REMARK  251  A    between atoms: _617  and  _620
REMARK  252  A    between atoms: _620  and  _621
REMARK  253  A    between atoms: _621  and  _622
REMARK  254  A    between atoms: _622  and  _623
REMARK  255  A    between atoms: _623  and  _624
REMARK  256  A    between atoms: _628  and  _630
REMARK  257  A    between atoms: _630  and  _631
REMARK  258  A    between atoms: _630  and  _633
REMARK  259  A    between atoms: _633  and  _634
REMARK  260  A    between atoms: _639  and  _641
REMARK  261  A    between atoms: _641  and  _642
REMARK  262  A    between atoms: _641  and  _644
REMARK  263  A    between atoms: _644  and  _645
REMARK  264  A    between atoms: _645  and  _646
REMARK  265  A    between atoms: _646  and  _647
REMARK  266  A    between atoms: _647  and  _648
REMARK  267  A    between atoms: _652  and  _654
REMARK  268  A    between atoms: _654  and  _655
REMARK  269  A    between atoms: _654  and  _657
REMARK  270  A    between atoms: _657  and  _658
REMARK  271  A    between atoms: _668  and  _670
REMARK  272  A    between atoms: _670  and  _671
REMARK  273  A    between atoms: _674  and  _676
REMARK  274  A    between atoms: _676  and  _677
REMARK  275  A    between atoms: _679  and  _681
REMARK  276  A    between atoms: _681  and  _682
REMARK  277  A    between atoms: _685  and  _687
REMARK  278  A    between atoms: _687  and  _688
REMARK  279  A    between atoms: _691  and  _693
REMARK  280  A    between atoms: _693  and  _694
REMARK  281  A    between atoms: _693  and  _696
REMARK  282  A    between atoms: _696  and  _697
REMARK  283  A    between atoms: _697  and  _698
REMARK  284  A    between atoms: _701  and  _703
REMARK  285  A    between atoms: _703  and  _704
REMARK  286  A    between atoms: _703  and  _706
REMARK  287  A    between atoms: _706  and  _707
REMARK  288  A    between atoms: _712  and  _713
REMARK  289  A    between atoms: _715  and  _717
REMARK  290  A    between atoms: _717  and  _718
REMARK  291  A    between atoms: _717  and  _720
REMARK  292  A    between atoms: _720  and  _721
REMARK  293  A    between atoms: _726  and  _727
REMARK  294  A    between atoms: _729  and  _731
REMARK  295  A    between atoms: _731  and  _732
REMARK  296  A    between atoms: _731  and  _734
REMARK  297  A    between atoms: _734  and  _735
REMARK  298  A    between atoms: _735  and  _736
REMARK  299  A    between atoms: _736  and  _737
REMARK  300  A    between atoms: _746  and  _748
REMARK  301  A    between atoms: _748  and  _749
REMARK  302  A    between atoms: _752  and  _754
REMARK  303  A    between atoms: _754  and  _755
REMARK  304  A    between atoms: _754  and  _757
REMARK  305  A    between atoms: _757  and  _758
REMARK  306  A    between atoms: _763  and  _764
REMARK  307  A    between atoms: _766  and  _768
REMARK  308  A    between atoms: _768  and  _769
REMARK  309  A    between atoms: _768  and  _771
REMARK  310  A    between atoms: _771  and  _772
REMARK  311  A    between atoms: _775  and  _777
REMARK  312  A    between atoms: _777  and  _778
REMARK  313  A    between atoms: _777  and  _780
REMARK  314  A    between atoms: _780  and  _781
REMARK  315  A    between atoms: _784  and  _786
REMARK  316  A    between atoms: _786  and  _787
REMARK  317  A    between atoms: _786  and  _789
REMARK  318  A    between atoms: _789  and  _790
REMARK  319  A    between atoms: _791  and  _793
REMARK  320  A    between atoms: _793  and  _794
REMARK  321  A    between atoms: _793  and  _796
REMARK  322  A    between atoms: _799  and  _801
REMARK  323  A    between atoms: _801  and  _802
REMARK  324  A    between atoms: _801  and  _804
REMARK  325  A    between atoms: _804  and  _805
REMARK  326  A    between atoms: _805  and  _806
REMARK  327  A    between atoms: _809  and  _811
REMARK  328  A    between atoms: _811  and  _812
REMARK  329  A    between atoms: _811  and  _814
REMARK  330  A    between atoms: _814  and  _815
REMARK  331  A    between atoms: _825  and  _827
REMARK  332  A    between atoms: _827  and  _828
REMARK  333  A    between atoms: _827  and  _830
REMARK  334  A    between atoms: _830  and  _831
REMARK  335  A    between atoms: _834  and  _836
REMARK  336  A    between atoms: _836  and  _837
REMARK  337  A    between atoms: _836  and  _839
REMARK  338  A    between atoms: _839  and  _840
REMARK  339  A    between atoms: _840  and  _841
REMARK  340  A    between atoms: _841  and  _842
REMARK  341  A    between atoms: _851  and  _853
REMARK  342  A    between atoms: _853  and  _854
REMARK  343  A    between atoms: _853  and  _856
REMARK  344  A    between atoms: _856  and  _857
REMARK  345  A    between atoms: _862  and  _863
REMARK                            x       y       z     vdW  Elec       q    Type
REMARK                         _______ _______ _______ _____ _____    ______ ____
ROOT
ATOM      1  O   HOH     1      34.596  59.517 -10.357  0.00  0.00    +0.000 OA
ENDROOT
TORSDOF 0
REMARK  Name = ../refined-set-2016/1fzj/1fzj_pocket.pdb
REMARK  345 active torsions:
REMARK  status: ('A' for Active; 'I' for Inactive)
REMARK    1  A    between atoms: _1  and  _3
REMARK    2  A    between atoms: _3  and  _4
REMARK    3  A    between atoms: _3  and  _6
REMARK    4  A    between atoms: _6  and  _7
REMARK    5  A    between atoms: _10  and  _12
REMARK    6  A    between atoms: _12  and  _13
REMARK    7  A    between atoms: _12  and  _15
REMARK    8  A    between atoms: _15  and  _16
REMARK    9  A    between atoms: _16  and  _17
REMARK   10  A    between atoms: _17  and  _18
REMARK   11  A    between atoms: _27  and  _29
REMARK   12  A    between atoms: _29  and  _30
REMARK   13  A    between atoms: _29  and  _32
REMARK   14  A    between atoms: _32  and  _33
REMARK   15  A    between atoms: _38  and  _39
REMARK   16  A    between atoms: _41  and  _43
REMARK   17  A    between atoms: _43  and  _44
REMARK   18  A    between atoms: _43  and  _46
REMARK   19  A    between atoms: _46  and  _47
REMARK   20  A    between atoms: _53  and  _55
REMARK   21  A    between atoms: _55  and  _56
REMARK   22  A    between atoms: _55  and  _58
REMARK   23  A    between atoms: _61  and  _63
REMARK   24  A    between atoms: _63  and  _64
REMARK   25  A    between atoms: _63  and  _66
REMARK   26  A    between atoms: _66  and  _67
REMARK   27  A    between atoms: _70  and  _72
REMARK   28  A    between atoms: _72  and  _73
REMARK   29  A    between atoms: _72  and  _75
REMARK   30  A    between atoms: _75  and  _76
REMARK   31  A    between atoms: _81  and  _82
REMARK   32  A    between atoms: _84  and  _86
REMARK   33  A    between atoms: _86  and  _87
REMARK   34  A    between atoms: _86  and  _89
REMARK   35  A    between atoms: _89  and  _90
REMARK   36  A    between atoms: _90  and  _91
REMARK   37  A    between atoms: _93  and  _95
REMARK   38  A    between atoms: _95  and  _96
REMARK   39  A    between atoms: _95  and  _98
REMARK   40  A    between atoms: _98  and  _99
REMARK   41  A    between atoms: _99  and  _100
REMARK   42  A    between atoms: _103  and  _105
REMARK   43  A    between atoms: _105  and  _106
REMARK   44  A    between atoms: _105  and  _108
REMARK   45  A    between atoms: _111  and  _113
REMARK   46  A    between atoms: _113  and  _114
REMARK   47  A    between atoms: _113  and  _116
REMARK   48  A    between atoms: _119  and  _121
REMARK   49  A    between atoms: _121  and  _122
REMARK   50  A    between atoms: _121  and  _124
REMARK   51  A    between atoms: _124  and  _125
REMARK   52  A    between atoms: _131  and  _133
REMARK   53  A    between atoms: _133  and  _134
REMARK   54  A    between atoms: _133  and  _136
REMARK   55  A    between atoms: _139  and  _141
REMARK   56  A    between atoms: _141  and  _142
REMARK   57  A    between atoms: _141  and  _144
REMARK   58  A    between atoms: _144  and  _145
REMARK   59  A    between atoms: _150  and  _151
REMARK   60  A    between atoms: _153  and  _155
REMARK   61  A    between atoms: _155  and  _156
REMARK   62  A    between atoms: _155  and  _158
REMARK   63  A    between atoms: _158  and  _159
REMARK   64  A    between atoms: _159  and  _160
REMARK   65  A    between atoms: _162  and  _164
REMARK   66  A    between atoms: _164  and  _165
REMARK   67  A    between atoms: _164  and  _167
REMARK   68  A    between atoms: _167  and  _168
REMARK   69  A    between atoms: _168  and  _169
REMARK   70  A    between atoms: _172  and  _174
REMARK   71  A    between atoms: _174  and  _175
REMARK   72  A    between atoms: _174  and  _177
REMARK   73  A    between atoms: _177  and  _178
REMARK   74  A    between atoms: _178  and  _179
REMARK   75  A    between atoms: _182  and  _184
REMARK   76  A    between atoms: _184  and  _185
REMARK   77  A    between atoms: _184  and  _187
REMARK   78  A    between atoms: _187  and  _188
REMARK   79  A    between atoms: _193  and  _194
REMARK   80  A    between atoms: _196  and  _198
REMARK   81  A    between atoms: _198  and  _199
REMARK   82  A    between atoms: _198  and  _201
REMARK   83  A    between atoms: _201  and  _202
REMARK   84  A    between atoms: _212  and  _214
REMARK   85  A    between atoms: _214  and  _215
REMARK   86  A    between atoms: _214  and  _217
REMARK   87  A    between atoms: _217  and  _218
REMARK   88  A    between atoms: _218  and  _219
REMARK   89  A    between atoms: _222  and  _224
REMARK   90  A    between atoms: _224  and  _225
REMARK   91  A    between atoms: _224  and  _227
REMARK   92  A    between atoms: _227  and  _228
REMARK   93  A    between atoms: _228  and  _229
REMARK   94  A    between atoms: _229  and  _230
REMARK   95  A    between atoms: _239  and  _241
REMARK   96  A    between atoms: _241  and  _242
REMARK   97  A    between atoms: _241  and  _244
REMARK   98  A    between atoms: _244  and  _245
REMARK   99  A    between atoms: _245  and  _246
REMARK  100  A    between atoms: _249  and  _251
REMARK  101  A    between atoms: _251  and  _252
REMARK  102  A    between atoms: _251  and  _254
REMARK  103  A    between atoms: _254  and  _255
REMARK  104  A    between atoms: _258  and  _260
REMARK  105  A    between atoms: _260  and  _261
REMARK  106  A    between atoms: _260  and  _263
REMARK  107  A    between atoms: _263  and  _264
REMARK  108  A    between atoms: _264  and  _265
REMARK  109  A    between atoms: _270  and  _272
REMARK  110  A    between atoms: _272  and  _273
REMARK  111  A    between atoms: _272  and  _275
REMARK  112  A    between atoms: _275  and  _276
REMARK  113  A    between atoms: _276  and  _277
REMARK  114  A    between atoms: _277  and  _278
REMARK  115  A    between atoms: _278  and  _279
REMARK  116  A    between atoms: _283  and  _285
REMARK  117  A    between atoms: _285  and  _286
REMARK  118  A    between atoms: _289  and  _291
REMARK  119  A    between atoms: _291  and  _292
REMARK  120  A    between atoms: _294  and  _296
REMARK  121  A    between atoms: _296  and  _297
REMARK  122  A    between atoms: _296  and  _299
REMARK  123  A    between atoms: _299  and  _300
REMARK  124  A    between atoms: _305  and  _307
REMARK  125  A    between atoms: _307  and  _308
REMARK  126  A    between atoms: _307  and  _310
REMARK  127  A    between atoms: _310  and  _311
REMARK  128  A    between atoms: _311  and  _312
REMARK  129  A    between atoms: _315  and  _317
REMARK  130  A    between atoms: _317  and  _318
REMARK  131  A    between atoms: _317  and  _320
REMARK  132  A    between atoms: _320  and  _321
REMARK  133  A    between atoms: _323  and  _325
REMARK  134  A    between atoms: _325  and  _326
REMARK  135  A    between atoms: _325  and  _328
REMARK  136  A    between atoms: _328  and  _329
REMARK  137  A    between atoms: _335  and  _337
REMARK  138  A    between atoms: _337  and  _338
REMARK  139  A    between atoms: _337  and  _340
REMARK  140  A    between atoms: _343  and  _345
REMARK  141  A    between atoms: _345  and  _346
REMARK  142  A    between atoms: _345  and  _348
REMARK  143  A    between atoms: _348  and  _349
REMARK  144  A    between atoms: _352  and  _354
REMARK  145  A    between atoms: _354  and  _355
REMARK  146  A    between atoms: _354  and  _357
REMARK  147  A    between atoms: _357  and  _358
REMARK  148  A    between atoms: _361  and  _363
REMARK  149  A    between atoms: _363  and  _364
REMARK  150  A    between atoms: _363  and  _366
REMARK  151  A    between atoms: _366  and  _367
REMARK  152  A    between atoms: _370  and  _372
REMARK  153  A    between atoms: _372  and  _373
REMARK  154  A    between atoms: _372  and  _375
REMARK  155  A    between atoms: _375  and  _376
REMARK  156  A    between atoms: _379  and  _381
REMARK  157  A    between atoms: _381  and  _382
REMARK  158  A    between atoms: _381  and  _384
REMARK  159  A    between atoms: _384  and  _385
REMARK  160  A    between atoms: _390  and  _391
REMARK  161  A    between atoms: _393  and  _395
REMARK  162  A    between atoms: _395  and  _396
REMARK  163  A    between atoms: _395  and  _398
REMARK  164  A    between atoms: _398  and  _399
REMARK  165  A    between atoms: _404  and  _405
REMARK  166  A    between atoms: _407  and  _409
REMARK  167  A    between atoms: _409  and  _410
REMARK  168  A    between atoms: _409  and  _412
REMARK  169  A    between atoms: _412  and  _413
REMARK  170  A    between atoms: _416  and  _418
REMARK  171  A    between atoms: _418  and  _419
REMARK  172  A    between atoms: _418  and  _421
REMARK  173  A    between atoms: _421  and  _422
REMARK  174  A    between atoms: _422  and  _423
REMARK  175  A    between atoms: _428  and  _430
REMARK  176  A    between atoms: _430  and  _431
REMARK  177  A    between atoms: _430  and  _433
REMARK  178  A    between atoms: _436  and  _438
REMARK  179  A    between atoms: _438  and  _439
REMARK  180  A    between atoms: _438  and  _441
REMARK  181  A    between atoms: _441  and  _442
REMARK  182  A    between atoms: _445  and  _447
REMARK  183  A    between atoms: _447  and  _448
REMARK  184  A    between atoms: _447  and  _450
REMARK  185  A    between atoms: _450  and  _451
REMARK  186  A    between atoms: _453  and  _455
REMARK  187  A    between atoms: _455  and  _456
REMARK  188  A    between atoms: _458  and  _460
REMARK  189  A    between atoms: _460  and  _461
REMARK  190  A    between atoms: _460  and  _463
REMARK  191  A    between atoms: _463  and  _464
REMARK  192  A    between atoms: _464  and  _790
REMARK  193  A    between atoms: _465  and  _467
REMARK  194  A    between atoms: _467  and  _468
REMARK  195  A    between atoms: _467  and  _470
REMARK  196  A    between atoms: _470  and  _471
REMARK  197  A    between atoms: _476  and  _477
REMARK  198  A    between atoms: _479  and  _481
REMARK  199  A    between atoms: _481  and  _482
REMARK  200  A    between atoms: _481  and  _484
REMARK  201  A    between atoms: _484  and  _485
REMARK  202  A    between atoms: _485  and  _486
REMARK  203  A    between atoms: _491  and  _493
REMARK  204  A    between atoms: _493  and  _494
REMARK  205  A    between atoms: _493  and  _496
REMARK  206  A    between atoms: _496  and  _497
REMARK  207  A    between atoms: _497  and  _498
REMARK  208  A    between atoms: _503  and  _505
REMARK  209  A    between atoms: _505  and  _506
REMARK  210  A    between atoms: _505  and  _508
REMARK  211  A    between atoms: _508  and  _509
REMARK  212  A    between atoms: _514  and  _515
REMARK  213  A    between atoms: _517  and  _519
REMARK  214  A    between atoms: _519  and  _520
REMARK  215  A    between atoms: _523  and  _525
REMARK  216  A    between atoms: _525  and  _526
REMARK  217  A    between atoms: _525  and  _528
REMARK  218  A    between atoms: _528  and  _529
REMARK  219  A    between atoms: _534  and  _535
REMARK  220  A    between atoms: _537  and  _539
REMARK  221  A    between atoms: _539  and  _540
REMARK  222  A    between atoms: _539  and  _542
REMARK  223  A    between atoms: _542  and  _543
REMARK  224  A    between atoms: _548  and  _549
REMARK  225  A    between atoms: _551  and  _553
REMARK  226  A    between atoms: _553  and  _554
REMARK  227  A    between atoms: _553  and  _556
REMARK  228  A    between atoms: _556  and  _557
REMARK  229  A    between atoms: _560  and  _562
REMARK  230  A    between atoms: _562  and  _563
REMARK  231  A    between atoms: _562  and  _565
REMARK  232  A    between atoms: _565  and  _566
REMARK  233  A    between atoms: _576  and  _578
REMARK  234  A    between atoms: _578  and  _579
REMARK  235  A    between atoms: _582  and  _584
REMARK  236  A    between atoms: _584  and  _585
REMARK  237  A    between atoms: _588  and  _590
REMARK  238  A    between atoms: _590  and  _591
REMARK  239  A    between atoms: _590  and  _593
REMARK  240  A    between atoms: _593  and  _594
REMARK  241  A    between atoms: _597  and  _599
REMARK  242  A    between atoms: _599  and  _600
REMARK  243  A    between atoms: _599  and  _602
REMARK  244  A    between atoms: _602  and  _603
REMARK  245  A    between atoms: _606  and  _608
REMARK  246  A    between atoms: _608  and  _609
REMARK  247  A    between atoms: _608  and  _611
REMARK  248  A    between atoms: _611  and  _612
REMARK  249  A    between atoms: _615  and  _617
REMARK  250  A    between atoms: _617  and  _618
REMARK  251  A    between atoms: _617  and  _620
REMARK  252  A    between atoms: _620  and  _621
REMARK  253  A    between atoms: _621  and  _622
REMARK  254  A    between atoms: _622  and  _623
REMARK  255  A    between atoms: _623  and  _624
REMARK  256  A    between atoms: _628  and  _630
REMARK  257  A    between atoms: _630  and  _631
REMARK  258  A    between atoms: _630  and  _633
REMARK  259  A    between atoms: _633  and  _634
REMARK  260  A    between atoms: _639  and  _641
REMARK  261  A    between atoms: _641  and  _642
REMARK  262  A    between atoms: _641  and  _644
REMARK  263  A    between atoms: _644  and  _645
REMARK  264  A    between atoms: _645  and  _646
REMARK  265  A    between atoms: _646  and  _647
REMARK  266  A    between atoms: _647  and  _648
REMARK  267  A    between atoms: _652  and  _654
REMARK  268  A    between atoms: _654  and  _655
REMARK  269  A    between atoms: _654  and  _657
REMARK  270  A    between atoms: _657  and  _658
REMARK  271  A    between atoms: _668  and  _670
REMARK  272  A    between atoms: _670  and  _671
REMARK  273  A    between atoms: _674  and  _676
REMARK  274  A    between atoms: _676  and  _677
REMARK  275  A    between atoms: _679  and  _681
REMARK  276  A    between atoms: _681  and  _682
REMARK  277  A    between atoms: _685  and  _687
REMARK  278  A    between atoms: _687  and  _688
REMARK  279  A    between atoms: _691  and  _693
REMARK  280  A    between atoms: _693  and  _694
REMARK  281  A    between atoms: _693  and  _696
REMARK  282  A    between atoms: _696  and  _697
REMARK  283  A    between atoms: _697  and  _698
REMARK  284  A    between atoms: _701  and  _703
REMARK  285  A    between atoms: _703  and  _704
REMARK  286  A    between atoms: _703  and  _706
REMARK  287  A    between atoms: _706  and  _707
REMARK  288  A    between atoms: _712  and  _713
REMARK  289  A    between atoms: _715  and  _717
REMARK  290  A    between atoms: _717  and  _718
REMARK  291  A    between atoms: _717  and  _720
REMARK  292  A    between atoms: _720  and  _721
REMARK  293  A    between atoms: _726  and  _727
REMARK  294  A    between atoms: _729  and  _731
REMARK  295  A    between atoms: _731  and  _732
REMARK  296  A    between atoms: _731  and  _734
REMARK  297  A    between atoms: _734  and  _735
REMARK  298  A    between atoms: _735  and  _736
REMARK  299  A    between atoms: _736  and  _737
REMARK  300  A    between atoms: _746  and  _748
REMARK  301  A    between atoms: _748  and  _749
REMARK  302  A    between atoms: _752  and  _754
REMARK  303  A    between atoms: _754  and  _755
REMARK  304  A    between atoms: _754  and  _757
REMARK  305  A    between atoms: _757  and  _758
REMARK  306  A    between atoms: _763  and  _764
REMARK  307  A    between atoms: _766  and  _768
REMARK  308  A    between atoms: _768  and  _769
REMARK  309  A    between atoms: _768  and  _771
REMARK  310  A    between atoms: _771  and  _772
REMARK  311  A    between atoms: _775  and  _777
REMARK  312  A    between atoms: _777  and  _778
REMARK  313  A    between atoms: _777  and  _780
REMARK  314  A    between atoms: _780  and  _781
REMARK  315  A    between atoms: _784  and  _786
REMARK  316  A    between atoms: _786  and  _787
REMARK  317  A    between atoms: _786  and  _789
REMARK  318  A    between atoms: _789  and  _790
REMARK  319  A    between atoms: _791  and  _793
REMARK  320  A    between atoms: _793  and  _794
REMARK  321  A    between atoms: _793  and  _796
REMARK  322  A    between atoms: _799  and  _801
REMARK  323  A    between atoms: _801  and  _802
REMARK  324  A    between atoms: _801  and  _804
REMARK  325  A    between atoms: _804  and  _805
REMARK  326  A    between atoms: _805  and  _806
REMARK  327  A    between atoms: _809  and  _811
REMARK  328  A    between atoms: _811  and  _812
REMARK  329  A    between atoms: _811  and  _814
REMARK  330  A    between atoms: _814  and  _815
REMARK  331  A    between atoms: _825  and  _827
REMARK  332  A    between atoms: _827  and  _828
REMARK  333  A    between atoms: _827  and  _830
REMARK  334  A    between atoms: _830  and  _831
REMARK  335  A    between atoms: _834  and  _836
REMARK  336  A    between atoms: _836  and  _837
REMARK  337  A    between atoms: _836  and  _839
REMARK  338  A    between atoms: _839  and  _840
REMARK  339  A    between atoms: _840  and  _841
REMARK  340  A    between atoms: _841  and  _842
REMARK  341  A    between atoms: _851  and  _853
REMARK  342  A    between atoms: _853  and  _854
REMARK  343  A    between atoms: _853  and  _856
REMARK  344  A    between atoms: _856  and  _857
REMARK  345  A    between atoms: _862  and  _863
REMARK                            x       y       z     vdW  Elec       q    Type
REMARK                         _______ _______ _______ _____ _____    ______ ____
ROOT
ATOM      1  O   HOH     1      28.485  60.772 -14.620  0.00  0.00    +0.000 OA
ENDROOT
TORSDOF 0
REMARK  Name = ../refined-set-2016/1fzj/1fzj_pocket.pdb
REMARK  345 active torsions:
REMARK  status: ('A' for Active; 'I' for Inactive)
REMARK    1  A    between atoms: _1  and  _3
REMARK    2  A    between atoms: _3  and  _4
REMARK    3  A    between atoms: _3  and  _6
REMARK    4  A    between atoms: _6  and  _7
REMARK    5  A    between atoms: _10  and  _12
REMARK    6  A    between atoms: _12  and  _13
REMARK    7  A    between atoms: _12  and  _15
REMARK    8  A    between atoms: _15  and  _16
REMARK    9  A    between atoms: _16  and  _17
REMARK   10  A    between atoms: _17  and  _18
REMARK   11  A    between atoms: _27  and  _29
REMARK   12  A    between atoms: _29  and  _30
REMARK   13  A    between atoms: _29  and  _32
REMARK   14  A    between atoms: _32  and  _33
REMARK   15  A    between atoms: _38  and  _39
REMARK   16  A    between atoms: _41  and  _43
REMARK   17  A    between atoms: _43  and  _44
REMARK   18  A    between atoms: _43  and  _46
REMARK   19  A    between atoms: _46  and  _47
REMARK   20  A    between atoms: _53  and  _55
REMARK   21  A    between atoms: _55  and  _56
REMARK   22  A    between atoms: _55  and  _58
REMARK   23  A    between atoms: _61  and  _63
REMARK   24  A    between atoms: _63  and  _64
REMARK   25  A    between atoms: _63  and  _66
REMARK   26  A    between atoms: _66  and  _67
REMARK   27  A    between atoms: _70  and  _72
REMARK   28  A    between atoms: _72  and  _73
REMARK   29  A    between atoms: _72  and  _75
REMARK   30  A    between atoms: _75  and  _76
REMARK   31  A    between atoms: _81  and  _82
REMARK   32  A    between atoms: _84  and  _86
REMARK   33  A    between atoms: _86  and  _87
REMARK   34  A    between atoms: _86  and  _89
REMARK   35  A    between atoms: _89  and  _90
REMARK   36  A    between atoms: _90  and  _91
REMARK   37  A    between atoms: _93  and  _95
REMARK   38  A    between atoms: _95  and  _96
REMARK   39  A    between atoms: _95  and  _98
REMARK   40  A    between atoms: _98  and  _99
REMARK   41  A    between atoms: _99  and  _100
REMARK   42  A    between atoms: _103  and  _105
REMARK   43  A    between atoms: _105  and  _106
REMARK   44  A    between atoms: _105  and  _108
REMARK   45  A    between atoms: _111  and  _113
REMARK   46  A    between atoms: _113  and  _114
REMARK   47  A    between atoms: _113  and  _116
REMARK   48  A    between atoms: _119  and  _121
REMARK   49  A    between atoms: _121  and  _122
REMARK   50  A    between atoms: _121  and  _124
REMARK   51  A    between atoms: _124  and  _125
REMARK   52  A    between atoms: _131  and  _133
REMARK   53  A    between atoms: _133  and  _134
REMARK   54  A    between atoms: _133  and  _136
REMARK   55  A    between atoms: _139  and  _141
REMARK   56  A    between atoms: _141  and  _142
REMARK   57  A    between atoms: _141  and  _144
REMARK   58  A    between atoms: _144  and  _145
REMARK   59  A    between atoms: _150  and  _151
REMARK   60  A    between atoms: _153  and  _155
REMARK   61  A    between atoms: _155  and  _156
REMARK   62  A    between atoms: _155  and  _158
REMARK   63  A    between atoms: _158  and  _159
REMARK   64  A    between atoms: _159  and  _160
REMARK   65  A    between atoms: _162  and  _164
REMARK   66  A    between atoms: _164  and  _165
REMARK   67  A    between atoms: _164  and  _167
REMARK   68  A    between atoms: _167  and  _168
REMARK   69  A    between atoms: _168  and  _169
REMARK   70  A    between atoms: _172  and  _174
REMARK   71  A    between atoms: _174  and  _175
REMARK   72  A    between atoms: _174  and  _177
REMARK   73  A    between atoms: _177  and  _178
REMARK   74  A    between atoms: _178  and  _179
REMARK   75  A    between atoms: _182  and  _184
REMARK   76  A    between atoms: _184  and  _185
REMARK   77  A    between atoms: _184  and  _187
REMARK   78  A    between atoms: _187  and  _188
REMARK   79  A    between atoms: _193  and  _194
REMARK   80  A    between atoms: _196  and  _198
REMARK   81  A    between atoms: _198  and  _199
REMARK   82  A    between atoms: _198  and  _201
REMARK   83  A    between atoms: _201  and  _202
REMARK   84  A    between atoms: _212  and  _214
REMARK   85  A    between atoms: _214  and  _215
REMARK   86  A    between atoms: _214  and  _217
REMARK   87  A    between atoms: _217  and  _218
REMARK   88  A    between atoms: _218  and  _219
REMARK   89  A    between atoms: _222  and  _224
REMARK   90  A    between atoms: _224  and  _225
REMARK   91  A    between atoms: _224  and  _227
REMARK   92  A    between atoms: _227  and  _228
REMARK   93  A    between atoms: _228  and  _229
REMARK   94  A    between atoms: _229  and  _230
REMARK   95  A    between atoms: _239  and  _241
REMARK   96  A    between atoms: _241  and  _242
REMARK   97  A    between atoms: _241  and  _244
REMARK   98  A    between atoms: _244  and  _245
REMARK   99  A    between atoms: _245  and  _246
REMARK  100  A    between atoms: _249  and  _251
REMARK  101  A    between atoms: _251  and  _252
REMARK  102  A    between atoms: _251  and  _254
REMARK  103  A    between atoms: _254  and  _255
REMARK  104  A    between atoms: _258  and  _260
REMARK  105  A    between atoms: _260  and  _261
REMARK  106  A    between atoms: _260  and  _263
REMARK  107  A    between atoms: _263  and  _264
REMARK  108  A    between atoms: _264  and  _265
REMARK  109  A    between atoms: _270  and  _272
REMARK  110  A    between atoms: _272  and  _273
REMARK  111  A    between atoms: _272  and  _275
REMARK  112  A    between atoms: _275  and  _276
REMARK  113  A    between atoms: _276  and  _277
REMARK  114  A    between atoms: _277  and  _278
REMARK  115  A    between atoms: _278  and  _279
REMARK  116  A    between atoms: _283  and  _285
REMARK  117  A    between atoms: _285  and  _286
REMARK  118  A    between atoms: _289  and  _291
REMARK  119  A    between atoms: _291  and  _292
REMARK  120  A    between atoms: _294  and  _296
REMARK  121  A    between atoms: _296  and  _297
REMARK  122  A    between atoms: _296  and  _299
REMARK  123  A    between atoms: _299  and  _300
REMARK  124  A    between atoms: _305  and  _307
REMARK  125  A    between atoms: _307  and  _308
REMARK  126  A    between atoms: _307  and  _310
REMARK  127  A    between atoms: _310  and  _311
REMARK  128  A    between atoms: _311  and  _312
REMARK  129  A    between atoms: _315  and  _317
REMARK  130  A    between atoms: _317  and  _318
REMARK  131  A    between atoms: _317  and  _320
REMARK  132  A    between atoms: _320  and  _321
REMARK  133  A    between atoms: _323  and  _325
REMARK  134  A    between atoms: _325  and  _326
REMARK  135  A    between atoms: _325  and  _328
REMARK  136  A    between atoms: _328  and  _329
REMARK  137  A    between atoms: _335  and  _337
REMARK  138  A    between atoms: _337  and  _338
REMARK  139  A    between atoms: _337  and  _340
REMARK  140  A    between atoms: _343  and  _345
REMARK  141  A    between atoms: _345  and  _346
REMARK  142  A    between atoms: _345  and  _348
REMARK  143  A    between atoms: _348  and  _349
REMARK  144  A    between atoms: _352  and  _354
REMARK  145  A    between atoms: _354  and  _355
REMARK  146  A    between atoms: _354  and  _357
REMARK  147  A    between atoms: _357  and  _358
REMARK  148  A    between atoms: _361  and  _363
REMARK  149  A    between atoms: _363  and  _364
REMARK  150  A    between atoms: _363  and  _366
REMARK  151  A    between atoms: _366  and  _367
REMARK  152  A    between atoms: _370  and  _372
REMARK  153  A    between atoms: _372  and  _373
REMARK  154  A    between atoms: _372  and  _375
REMARK  155  A    between atoms: _375  and  _376
REMARK  156  A    between atoms: _379  and  _381
REMARK  157  A    between atoms: _381  and  _382
REMARK  158  A    between atoms: _381  and  _384
REMARK  159  A    between atoms: _384  and  _385
REMARK  160  A    between atoms: _390  and  _391
REMARK  161  A    between atoms: _393  and  _395
REMARK  162  A    between atoms: _395  and  _396
REMARK  163  A    between atoms: _395  and  _398
REMARK  164  A    between atoms: _398  and  _399
REMARK  165  A    between atoms: _404  and  _405
REMARK  166  A    between atoms: _407  and  _409
REMARK  167  A    between atoms: _409  and  _410
REMARK  168  A    between atoms: _409  and  _412
REMARK  169  A    between atoms: _412  and  _413
REMARK  170  A    between atoms: _416  and  _418
REMARK  171  A    between atoms: _418  and  _419
REMARK  172  A    between atoms: _418  and  _421
REMARK  173  A    between atoms: _421  and  _422
REMARK  174  A    between atoms: _422  and  _423
REMARK  175  A    between atoms: _428  and  _430
REMARK  176  A    between atoms: _430  and  _431
REMARK  177  A    between atoms: _430  and  _433
REMARK  178  A    between atoms: _436  and  _438
REMARK  179  A    between atoms: _438  and  _439
REMARK  180  A    between atoms: _438  and  _441
REMARK  181  A    between atoms: _441  and  _442
REMARK  182  A    between atoms: _445  and  _447
REMARK  183  A    between atoms: _447  and  _448
REMARK  184  A    between atoms: _447  and  _450
REMARK  185  A    between atoms: _450  and  _451
REMARK  186  A    between atoms: _453  and  _455
REMARK  187  A    between atoms: _455  and  _456
REMARK  188  A    between atoms: _458  and  _460
REMARK  189  A    between atoms: _460  and  _461
REMARK  190  A    between atoms: _460  and  _463
REMARK  191  A    between atoms: _463  and  _464
REMARK  192  A    between atoms: _464  and  _790
REMARK  193  A    between atoms: _465  and  _467
REMARK  194  A    between atoms: _467  and  _468
REMARK  195  A    between atoms: _467  and  _470
REMARK  196  A    between atoms: _470  and  _471
REMARK  197  A    between atoms: _476  and  _477
REMARK  198  A    between atoms: _479  and  _481
REMARK  199  A    between atoms: _481  and  _482
REMARK  200  A    between atoms: _481  and  _484
REMARK  201  A    between atoms: _484  and  _485
REMARK  202  A    between atoms: _485  and  _486
REMARK  203  A    between atoms: _491  and  _493
REMARK  204  A    between atoms: _493  and  _494
REMARK  205  A    between atoms: _493  and  _496
REMARK  206  A    between atoms: _496  and  _497
REMARK  207  A    between atoms: _497  and  _498
REMARK  208  A    between atoms: _503  and  _505
REMARK  209  A    between atoms: _505  and  _506
REMARK  210  A    between atoms: _505  and  _508
REMARK  211  A    between atoms: _508  and  _509
REMARK  212  A    between atoms: _514  and  _515
REMARK  213  A    between atoms: _517  and  _519
REMARK  214  A    between atoms: _519  and  _520
REMARK  215  A    between atoms: _523  and  _525
REMARK  216  A    between atoms: _525  and  _526
REMARK  217  A    between atoms: _525  and  _528
REMARK  218  A    between atoms: _528  and  _529
REMARK  219  A    between atoms: _534  and  _535
REMARK  220  A    between atoms: _537  and  _539
REMARK  221  A    between atoms: _539  and  _540
REMARK  222  A    between atoms: _539  and  _542
REMARK  223  A    between atoms: _542  and  _543
REMARK  224  A    between atoms: _548  and  _549
REMARK  225  A    between atoms: _551  and  _553
REMARK  226  A    between atoms: _553  and  _554
REMARK  227  A    between atoms: _553  and  _556
REMARK  228  A    between atoms: _556  and  _557
REMARK  229  A    between atoms: _560  and  _562
REMARK  230  A    between atoms: _562  and  _563
REMARK  231  A    between atoms: _562  and  _565
REMARK  232  A    between atoms: _565  and  _566
REMARK  233  A    between atoms: _576  and  _578
REMARK  234  A    between atoms: _578  and  _579
REMARK  235  A    between atoms: _582  and  _584
REMARK  236  A    between atoms: _584  and  _585
REMARK  237  A    between atoms: _588  and  _590
REMARK  238  A    between atoms: _590  and  _591
REMARK  239  A    between atoms: _590  and  _593
REMARK  240  A    between atoms: _593  and  _594
REMARK  241  A    between atoms: _597  and  _599
REMARK  242  A    between atoms: _599  and  _600
REMARK  243  A    between atoms: _599  and  _602
REMARK  244  A    between atoms: _602  and  _603
REMARK  245  A    between atoms: _606  and  _608
REMARK  246  A    between atoms: _608  and  _609
REMARK  247  A    between atoms: _608  and  _611
REMARK  248  A    between atoms: _611  and  _612
REMARK  249  A    between atoms: _615  and  _617
REMARK  250  A    between atoms: _617  and  _618
REMARK  251  A    between atoms: _617  and  _620
REMARK  252  A    between atoms: _620  and  _621
REMARK  253  A    between atoms: _621  and  _622
REMARK  254  A    between atoms: _622  and  _623
REMARK  255  A    between atoms: _623  and  _624
REMARK  256  A    between atoms: _628  and  _630
REMARK  257  A    between atoms: _630  and  _631
REMARK  258  A    between atoms: _630  and  _633
REMARK  259  A    between atoms: _633  and  _634
REMARK  260  A    between atoms: _639  and  _641
REMARK  261  A    between atoms: _641  and  _642
REMARK  262  A    between atoms: _641  and  _644
REMARK  263  A    between atoms: _644  and  _645
REMARK  264  A    between atoms: _645  and  _646
REMARK  265  A    between atoms: _646  and  _647
REMARK  266  A    between atoms: _647  and  _648
REMARK  267  A    between atoms: _652  and  _654
REMARK  268  A    between atoms: _654  and  _655
REMARK  269  A    between atoms: _654  and  _657
REMARK  270  A    between atoms: _657  and  _658
REMARK  271  A    between atoms: _668  and  _670
REMARK  272  A    between atoms: _670  and  _671
REMARK  273  A    between atoms: _674  and  _676
REMARK  274  A    between atoms: _676  and  _677
REMARK  275  A    between atoms: _679  and  _681
REMARK  276  A    between atoms: _681  and  _682
REMARK  277  A    between atoms: _685  and  _687
REMARK  278  A    between atoms: _687  and  _688
REMARK  279  A    between atoms: _691  and  _693
REMARK  280  A    between atoms: _693  and  _694
REMARK  281  A    between atoms: _693  and  _696
REMARK  282  A    between atoms: _696  and  _697
REMARK  283  A    between atoms: _697  and  _698
REMARK  284  A    between atoms: _701  and  _703
REMARK  285  A    between atoms: _703  and  _704
REMARK  286  A    between atoms: _703  and  _706
REMARK  287  A    between atoms: _706  and  _707
REMARK  288  A    between atoms: _712  and  _713
REMARK  289  A    between atoms: _715  and  _717
REMARK  290  A    between atoms: _717  and  _718
REMARK  291  A    between atoms: _717  and  _720
REMARK  292  A    between atoms: _720  and  _721
REMARK  293  A    between atoms: _726  and  _727
REMARK  294  A    between atoms: _729  and  _731
REMARK  295  A    between atoms: _731  and  _732
REMARK  296  A    between atoms: _731  and  _734
REMARK  297  A    between atoms: _734  and  _735
REMARK  298  A    between atoms: _735  and  _736
REMARK  299  A    between atoms: _736  and  _737
REMARK  300  A    between atoms: _746  and  _748
REMARK  301  A    between atoms: _748  and  _749
REMARK  302  A    between atoms: _752  and  _754
REMARK  303  A    between atoms: _754  and  _755
REMARK  304  A    between atoms: _754  and  _757
REMARK  305  A    between atoms: _757  and  _758
REMARK  306  A    between atoms: _763  and  _764
REMARK  307  A    between atoms: _766  and  _768
REMARK  308  A    between atoms: _768  and  _769
REMARK  309  A    between atoms: _768  and  _771
REMARK  310  A    between atoms: _771  and  _772
REMARK  311  A    between atoms: _775  and  _777
REMARK  312  A    between atoms: _777  and  _778
REMARK  313  A    between atoms: _777  and  _780
REMARK  314  A    between atoms: _780  and  _781
REMARK  315  A    between atoms: _784  and  _786
REMARK  316  A    between atoms: _786  and  _787
REMARK  317  A    between atoms: _786  and  _789
REMARK  318  A    between atoms: _789  and  _790
REMARK  319  A    between atoms: _791  and  _793
REMARK  320  A    between atoms: _793  and  _794
REMARK  321  A    between atoms: _793  and  _796
REMARK  322  A    between atoms: _799  and  _801
REMARK  323  A    between atoms: _801  and  _802
REMARK  324  A    between atoms: _801  and  _804
REMARK  325  A    between atoms: _804  and  _805
REMARK  326  A    between atoms: _805  and  _806
REMARK  327  A    between atoms: _809  and  _811
REMARK  328  A    between atoms: _811  and  _812
REMARK  329  A    between atoms: _811  and  _814
REMARK  330  A    between atoms: _814  and  _815
REMARK  331  A    between atoms: _825  and  _827
REMARK  332  A    between atoms: _827  and  _828
REMARK  333  A    between atoms: _827  and  _830
REMARK  334  A    between atoms: _830  and  _831
REMARK  335  A    between atoms: _834  and  _836
REMARK  336  A    between atoms: _836  and  _837
REMARK  337  A    between atoms: _836  and  _839
REMARK  338  A    between atoms: _839  and  _840
REMARK  339  A    between atoms: _840  and  _841
REMARK  340  A    between atoms: _841  and  _842
REMARK  341  A    between atoms: _851  and  _853
REMARK  342  A    between atoms: _853  and  _854
REMARK  343  A    between atoms: _853  and  _856
REMARK  344  A    between atoms: _856  and  _857
REMARK  345  A    between atoms: _862  and  _863
REMARK                            x       y       z     vdW  Elec       q    Type
REMARK                         _______ _______ _______ _____ _____    ______ ____
ROOT
ATOM      1  O   HOH     1      49.107  64.706  -5.136  0.00  0.00    +0.000 OA
ENDROOT
TORSDOF 0
REMARK  Name = ../refined-set-2016/1fzj/1fzj_pocket.pdb
REMARK  345 active torsions:
REMARK  status: ('A' for Active; 'I' for Inactive)
REMARK    1  A    between atoms: _1  and  _3
REMARK    2  A    between atoms: _3  and  _4
REMARK    3  A    between atoms: _3  and  _6
REMARK    4  A    between atoms: _6  and  _7
REMARK    5  A    between atoms: _10  and  _12
REMARK    6  A    between atoms: _12  and  _13
REMARK    7  A    between atoms: _12  and  _15
REMARK    8  A    between atoms: _15  and  _16
REMARK    9  A    between atoms: _16  and  _17
REMARK   10  A    between atoms: _17  and  _18
REMARK   11  A    between atoms: _27  and  _29
REMARK   12  A    between atoms: _29  and  _30
REMARK   13  A    between atoms: _29  and  _32
REMARK   14  A    between atoms: _32  and  _33
REMARK   15  A    between atoms: _38  and  _39
REMARK   16  A    between atoms: _41  and  _43
REMARK   17  A    between atoms: _43  and  _44
REMARK   18  A    between atoms: _43  and  _46
REMARK   19  A    between atoms: _46  and  _47
REMARK   20  A    between atoms: _53  and  _55
REMARK   21  A    between atoms: _55  and  _56
REMARK   22  A    between atoms: _55  and  _58
REMARK   23  A    between atoms: _61  and  _63
REMARK   24  A    between atoms: _63  and  _64
REMARK   25  A    between atoms: _63  and  _66
REMARK   26  A    between atoms: _66  and  _67
REMARK   27  A    between atoms: _70  and  _72
REMARK   28  A    between atoms: _72  and  _73
REMARK   29  A    between atoms: _72  and  _75
REMARK   30  A    between atoms: _75  and  _76
REMARK   31  A    between atoms: _81  and  _82
REMARK   32  A    between atoms: _84  and  _86
REMARK   33  A    between atoms: _86  and  _87
REMARK   34  A    between atoms: _86  and  _89
REMARK   35  A    between atoms: _89  and  _90
REMARK   36  A    between atoms: _90  and  _91
REMARK   37  A    between atoms: _93  and  _95
REMARK   38  A    between atoms: _95  and  _96
REMARK   39  A    between atoms: _95  and  _98
REMARK   40  A    between atoms: _98  and  _99
REMARK   41  A    between atoms: _99  and  _100
REMARK   42  A    between atoms: _103  and  _105
REMARK   43  A    between atoms: _105  and  _106
REMARK   44  A    between atoms: _105  and  _108
REMARK   45  A    between atoms: _111  and  _113
REMARK   46  A    between atoms: _113  and  _114
REMARK   47  A    between atoms: _113  and  _116
REMARK   48  A    between atoms: _119  and  _121
REMARK   49  A    between atoms: _121  and  _122
REMARK   50  A    between atoms: _121  and  _124
REMARK   51  A    between atoms: _124  and  _125
REMARK   52  A    between atoms: _131  and  _133
REMARK   53  A    between atoms: _133  and  _134
REMARK   54  A    between atoms: _133  and  _136
REMARK   55  A    between atoms: _139  and  _141
REMARK   56  A    between atoms: _141  and  _142
REMARK   57  A    between atoms: _141  and  _144
REMARK   58  A    between atoms: _144  and  _145
REMARK   59  A    between atoms: _150  and  _151
REMARK   60  A    between atoms: _153  and  _155
REMARK   61  A    between atoms: _155  and  _156
REMARK   62  A    between atoms: _155  and  _158
REMARK   63  A    between atoms: _158  and  _159
REMARK   64  A    between atoms: _159  and  _160
REMARK   65  A    between atoms: _162  and  _164
REMARK   66  A    between atoms: _164  and  _165
REMARK   67  A    between atoms: _164  and  _167
REMARK   68  A    between atoms: _167  and  _168
REMARK   69  A    between atoms: _168  and  _169
REMARK   70  A    between atoms: _172  and  _174
REMARK   71  A    between atoms: _174  and  _175
REMARK   72  A    between atoms: _174  and  _177
REMARK   73  A    between atoms: _177  and  _178
REMARK   74  A    between atoms: _178  and  _179
REMARK   75  A    between atoms: _182  and  _184
REMARK   76  A    between atoms: _184  and  _185
REMARK   77  A    between atoms: _184  and  _187
REMARK   78  A    between atoms: _187  and  _188
REMARK   79  A    between atoms: _193  and  _194
REMARK   80  A    between atoms: _196  and  _198
REMARK   81  A    between atoms: _198  and  _199
REMARK   82  A    between atoms: _198  and  _201
REMARK   83  A    between atoms: _201  and  _202
REMARK   84  A    between atoms: _212  and  _214
REMARK   85  A    between atoms: _214  and  _215
REMARK   86  A    between atoms: _214  and  _217
REMARK   87  A    between atoms: _217  and  _218
REMARK   88  A    between atoms: _218  and  _219
REMARK   89  A    between atoms: _222  and  _224
REMARK   90  A    between atoms: _224  and  _225
REMARK   91  A    between atoms: _224  and  _227
REMARK   92  A    between atoms: _227  and  _228
REMARK   93  A    between atoms: _228  and  _229
REMARK   94  A    between atoms: _229  and  _230
REMARK   95  A    between atoms: _239  and  _241
REMARK   96  A    between atoms: _241  and  _242
REMARK   97  A    between atoms: _241  and  _244
REMARK   98  A    between atoms: _244  and  _245
REMARK   99  A    between atoms: _245  and  _246
REMARK  100  A    between atoms: _249  and  _251
REMARK  101  A    between atoms: _251  and  _252
REMARK  102  A    between atoms: _251  and  _254
REMARK  103  A    between atoms: _254  and  _255
REMARK  104  A    between atoms: _258  and  _260
REMARK  105  A    between atoms: _260  and  _261
REMARK  106  A    between atoms: _260  and  _263
REMARK  107  A    between atoms: _263  and  _264
REMARK  108  A    between atoms: _264  and  _265
REMARK  109  A    between atoms: _270  and  _272
REMARK  110  A    between atoms: _272  and  _273
REMARK  111  A    between atoms: _272  and  _275
REMARK  112  A    between atoms: _275  and  _276
REMARK  113  A    between atoms: _276  and  _277
REMARK  114  A    between atoms: _277  and  _278
REMARK  115  A    between atoms: _278  and  _279
REMARK  116  A    between atoms: _283  and  _285
REMARK  117  A    between atoms: _285  and  _286
REMARK  118  A    between atoms: _289  and  _291
REMARK  119  A    between atoms: _291  and  _292
REMARK  120  A    between atoms: _294  and  _296
REMARK  121  A    between atoms: _296  and  _297
REMARK  122  A    between atoms: _296  and  _299
REMARK  123  A    between atoms: _299  and  _300
REMARK  124  A    between atoms: _305  and  _307
REMARK  125  A    between atoms: _307  and  _308
REMARK  126  A    between atoms: _307  and  _310
REMARK  127  A    between atoms: _310  and  _311
REMARK  128  A    between atoms: _311  and  _312
REMARK  129  A    between atoms: _315  and  _317
REMARK  130  A    between atoms: _317  and  _318
REMARK  131  A    between atoms: _317  and  _320
REMARK  132  A    between atoms: _320  and  _321
REMARK  133  A    between atoms: _323  and  _325
REMARK  134  A    between atoms: _325  and  _326
REMARK  135  A    between atoms: _325  and  _328
REMARK  136  A    between atoms: _328  and  _329
REMARK  137  A    between atoms: _335  and  _337
REMARK  138  A    between atoms: _337  and  _338
REMARK  139  A    between atoms: _337  and  _340
REMARK  140  A    between atoms: _343  and  _345
REMARK  141  A    between atoms: _345  and  _346
REMARK  142  A    between atoms: _345  and  _348
REMARK  143  A    between atoms: _348  and  _349
REMARK  144  A    between atoms: _352  and  _354
REMARK  145  A    between atoms: _354  and  _355
REMARK  146  A    between atoms: _354  and  _357
REMARK  147  A    between atoms: _357  and  _358
REMARK  148  A    between atoms: _361  and  _363
REMARK  149  A    between atoms: _363  and  _364
REMARK  150  A    between atoms: _363  and  _366
REMARK  151  A    between atoms: _366  and  _367
REMARK  152  A    between atoms: _370  and  _372
REMARK  153  A    between atoms: _372  and  _373
REMARK  154  A    between atoms: _372  and  _375
REMARK  155  A    between atoms: _375  and  _376
REMARK  156  A    between atoms: _379  and  _381
REMARK  157  A    between atoms: _381  and  _382
REMARK  158  A    between atoms: _381  and  _384
REMARK  159  A    between atoms: _384  and  _385
REMARK  160  A    between atoms: _390  and  _391
REMARK  161  A    between atoms: _393  and  _395
REMARK  162  A    between atoms: _395  and  _396
REMARK  163  A    between atoms: _395  and  _398
REMARK  164  A    between atoms: _398  and  _399
REMARK  165  A    between atoms: _404  and  _405
REMARK  166  A    between atoms: _407  and  _409
REMARK  167  A    between atoms: _409  and  _410
REMARK  168  A    between atoms: _409  and  _412
REMARK  169  A    between atoms: _412  and  _413
REMARK  170  A    between atoms: _416  and  _418
REMARK  171  A    between atoms: _418  and  _419
REMARK  172  A    between atoms: _418  and  _421
REMARK  173  A    between atoms: _421  and  _422
REMARK  174  A    between atoms: _422  and  _423
REMARK  175  A    between atoms: _428  and  _430
REMARK  176  A    between atoms: _430  and  _431
REMARK  177  A    between atoms: _430  and  _433
REMARK  178  A    between atoms: _436  and  _438
REMARK  179  A    between atoms: _438  and  _439
REMARK  180  A    between atoms: _438  and  _441
REMARK  181  A    between atoms: _441  and  _442
REMARK  182  A    between atoms: _445  and  _447
REMARK  183  A    between atoms: _447  and  _448
REMARK  184  A    between atoms: _447  and  _450
REMARK  185  A    between atoms: _450  and  _451
REMARK  186  A    between atoms: _453  and  _455
REMARK  187  A    between atoms: _455  and  _456
REMARK  188  A    between atoms: _458  and  _460
REMARK  189  A    between atoms: _460  and  _461
REMARK  190  A    between atoms: _460  and  _463
REMARK  191  A    between atoms: _463  and  _464
REMARK  192  A    between atoms: _464  and  _790
REMARK  193  A    between atoms: _465  and  _467
REMARK  194  A    between atoms: _467  and  _468
REMARK  195  A    between atoms: _467  and  _470
REMARK  196  A    between atoms: _470  and  _471
REMARK  197  A    between atoms: _476  and  _477
REMARK  198  A    between atoms: _479  and  _481
REMARK  199  A    between atoms: _481  and  _482
REMARK  200  A    between atoms: _481  and  _484
REMARK  201  A    between atoms: _484  and  _485
REMARK  202  A    between atoms: _485  and  _486
REMARK  203  A    between atoms: _491  and  _493
REMARK  204  A    between atoms: _493  and  _494
REMARK  205  A    between atoms: _493  and  _496
REMARK  206  A    between atoms: _496  and  _497
REMARK  207  A    between atoms: _497  and  _498
REMARK  208  A    between atoms: _503  and  _505
REMARK  209  A    between atoms: _505  and  _506
REMARK  210  A    between atoms: _505  and  _508
REMARK  211  A    between atoms: _508  and  _509
REMARK  212  A    between atoms: _514  and  _515
REMARK  213  A    between atoms: _517  and  _519
REMARK  214  A    between atoms: _519  and  _520
REMARK  215  A    between atoms: _523  and  _525
REMARK  216  A    between atoms: _525  and  _526
REMARK  217  A    between atoms: _525  and  _528
REMARK  218  A    between atoms: _528  and  _529
REMARK  219  A    between atoms: _534  and  _535
REMARK  220  A    between atoms: _537  and  _539
REMARK  221  A    between atoms: _539  and  _540
REMARK  222  A    between atoms: _539  and  _542
REMARK  223  A    between atoms: _542  and  _543
REMARK  224  A    between atoms: _548  and  _549
REMARK  225  A    between atoms: _551  and  _553
REMARK  226  A    between atoms: _553  and  _554
REMARK  227  A    between atoms: _553  and  _556
REMARK  228  A    between atoms: _556  and  _557
REMARK  229  A    between atoms: _560  and  _562
REMARK  230  A    between atoms: _562  and  _563
REMARK  231  A    between atoms: _562  and  _565
REMARK  232  A    between atoms: _565  and  _566
REMARK  233  A    between atoms: _576  and  _578
REMARK  234  A    between atoms: _578  and  _579
REMARK  235  A    between atoms: _582  and  _584
REMARK  236  A    between atoms: _584  and  _585
REMARK  237  A    between atoms: _588  and  _590
REMARK  238  A    between atoms: _590  and  _591
REMARK  239  A    between atoms: _590  and  _593
REMARK  240  A    between atoms: _593  and  _594
REMARK  241  A    between atoms: _597  and  _599
REMARK  242  A    between atoms: _599  and  _600
REMARK  243  A    between atoms: _599  and  _602
REMARK  244  A    between atoms: _602  and  _603
REMARK  245  A    between atoms: _606  and  _608
REMARK  246  A    between atoms: _608  and  _609
REMARK  247  A    between atoms: _608  and  _611
REMARK  248  A    between atoms: _611  and  _612
REMARK  249  A    between atoms: _615  and  _617
REMARK  250  A    between atoms: _617  and  _618
REMARK  251  A    between atoms: _617  and  _620
REMARK  252  A    between atoms: _620  and  _621
REMARK  253  A    between atoms: _621  and  _622
REMARK  254  A    between atoms: _622  and  _623
REMARK  255  A    between atoms: _623  and  _624
REMARK  256  A    between atoms: _628  and  _630
REMARK  257  A    between atoms: _630  and  _631
REMARK  258  A    between atoms: _630  and  _633
REMARK  259  A    between atoms: _633  and  _634
REMARK  260  A    between atoms: _639  and  _641
REMARK  261  A    between atoms: _641  and  _642
REMARK  262  A    between atoms: _641  and  _644
REMARK  263  A    between atoms: _644  and  _645
REMARK  264  A    between atoms: _645  and  _646
REMARK  265  A    between atoms: _646  and  _647
REMARK  266  A    between atoms: _647  and  _648
REMARK  267  A    between atoms: _652  and  _654
REMARK  268  A    between atoms: _654  and  _655
REMARK  269  A    between atoms: _654  and  _657
REMARK  270  A    between atoms: _657  and  _658
REMARK  271  A    between atoms: _668  and  _670
REMARK  272  A    between atoms: _670  and  _671
REMARK  273  A    between atoms: _674  and  _676
REMARK  274  A    between atoms: _676  and  _677
REMARK  275  A    between atoms: _679  and  _681
REMARK  276  A    between atoms: _681  and  _682
REMARK  277  A    between atoms: _685  and  _687
REMARK  278  A    between atoms: _687  and  _688
REMARK  279  A    between atoms: _691  and  _693
REMARK  280  A    between atoms: _693  and  _694
REMARK  281  A    between atoms: _693  and  _696
REMARK  282  A    between atoms: _696  and  _697
REMARK  283  A    between atoms: _697  and  _698
REMARK  284  A    between atoms: _701  and  _703
REMARK  285  A    between atoms: _703  and  _704
REMARK  286  A    between atoms: _703  and  _706
REMARK  287  A    between atoms: _706  and  _707
REMARK  288  A    between atoms: _712  and  _713
REMARK  289  A    between atoms: _715  and  _717
REMARK  290  A    between atoms: _717  and  _718
REMARK  291  A    between atoms: _717  and  _720
REMARK  292  A    between atoms: _720  and  _721
REMARK  293  A    between atoms: _726  and  _727
REMARK  294  A    between atoms: _729  and  _731
REMARK  295  A    between atoms: _731  and  _732
REMARK  296  A    between atoms: _731  and  _734
REMARK  297  A    between atoms: _734  and  _735
REMARK  298  A    between atoms: _735  and  _736
REMARK  299  A    between atoms: _736  and  _737
REMARK  300  A    between atoms: _746  and  _748
REMARK  301  A    between atoms: _748  and  _749
REMARK  302  A    between atoms: _752  and  _754
REMARK  303  A    between atoms: _754  and  _755
REMARK  304  A    between atoms: _754  and  _757
REMARK  305  A    between atoms: _757  and  _758
REMARK  306  A    between atoms: _763  and  _764
REMARK  307  A    between atoms: _766  and  _768
REMARK  308  A    between atoms: _768  and  _769
REMARK  309  A    between atoms: _768  and  _771
REMARK  310  A    between atoms: _771  and  _772
REMARK  311  A    between atoms: _775  and  _777
REMARK  312  A    between atoms: _777  and  _778
REMARK  313  A    between atoms: _777  and  _780
REMARK  314  A    between atoms: _780  and  _781
REMARK  315  A    between atoms: _784  and  _786
REMARK  316  A    between atoms: _786  and  _787
REMARK  317  A    between atoms: _786  and  _789
REMARK  318  A    between atoms: _789  and  _790
REMARK  319  A    between atoms: _791  and  _793
REMARK  320  A    between atoms: _793  and  _794
REMARK  321  A    between atoms: _793  and  _796
REMARK  322  A    between atoms: _799  and  _801
REMARK  323  A    between atoms: _801  and  _802
REMARK  324  A    between atoms: _801  and  _804
REMARK  325  A    between atoms: _804  and  _805
REMARK  326  A    between atoms: _805  and  _806
REMARK  327  A    between atoms: _809  and  _811
REMARK  328  A    between atoms: _811  and  _812
REMARK  329  A    between atoms: _811  and  _814
REMARK  330  A    between atoms: _814  and  _815
REMARK  331  A    between atoms: _825  and  _827
REMARK  332  A    between atoms: _827  and  _828
REMARK  333  A    between atoms: _827  and  _830
REMARK  334  A    between atoms: _830  and  _831
REMARK  335  A    between atoms: _834  and  _836
REMARK  336  A    between atoms: _836  and  _837
REMARK  337  A    between atoms: _836  and  _839
REMARK  338  A    between atoms: _839  and  _840
REMARK  339  A    between atoms: _840  and  _841
REMARK  340  A    between atoms: _841  and  _842
REMARK  341  A    between atoms: _851  and  _853
REMARK  342  A    between atoms: _853  and  _854
REMARK  343  A    between atoms: _853  and  _856
REMARK  344  A    between atoms: _856  and  _857
REMARK  345  A    between atoms: _862  and  _863
REMARK                            x       y       z     vdW  Elec       q    Type
REMARK                         _______ _______ _______ _____ _____    ______ ____
ROOT
ATOM      1  O   HOH     1      46.650  62.960   2.778  0.00  0.00    +0.000 OA
ENDROOT
TORSDOF 0
REMARK  Name = ../refined-set-2016/1fzj/1fzj_pocket.pdb
REMARK  345 active torsions:
REMARK  status: ('A' for Active; 'I' for Inactive)
REMARK    1  A    between atoms: _1  and  _3
REMARK    2  A    between atoms: _3  and  _4
REMARK    3  A    between atoms: _3  and  _6
REMARK    4  A    between atoms: _6  and  _7
REMARK    5  A    between atoms: _10  and  _12
REMARK    6  A    between atoms: _12  and  _13
REMARK    7  A    between atoms: _12  and  _15
REMARK    8  A    between atoms: _15  and  _16
REMARK    9  A    between atoms: _16  and  _17
REMARK   10  A    between atoms: _17  and  _18
REMARK   11  A    between atoms: _27  and  _29
REMARK   12  A    between atoms: _29  and  _30
REMARK   13  A    between atoms: _29  and  _32
REMARK   14  A    between atoms: _32  and  _33
REMARK   15  A    between atoms: _38  and  _39
REMARK   16  A    between atoms: _41  and  _43
REMARK   17  A    between atoms: _43  and  _44
REMARK   18  A    between atoms: _43  and  _46
REMARK   19  A    between atoms: _46  and  _47
REMARK   20  A    between atoms: _53  and  _55
REMARK   21  A    between atoms: _55  and  _56
REMARK   22  A    between atoms: _55  and  _58
REMARK   23  A    between atoms: _61  and  _63
REMARK   24  A    between atoms: _63  and  _64
REMARK   25  A    between atoms: _63  and  _66
REMARK   26  A    between atoms: _66  and  _67
REMARK   27  A    between atoms: _70  and  _72
REMARK   28  A    between atoms: _72  and  _73
REMARK   29  A    between atoms: _72  and  _75
REMARK   30  A    between atoms: _75  and  _76
REMARK   31  A    between atoms: _81  and  _82
REMARK   32  A    between atoms: _84  and  _86
REMARK   33  A    between atoms: _86  and  _87
REMARK   34  A    between atoms: _86  and  _89
REMARK   35  A    between atoms: _89  and  _90
REMARK   36  A    between atoms: _90  and  _91
REMARK   37  A    between atoms: _93  and  _95
REMARK   38  A    between atoms: _95  and  _96
REMARK   39  A    between atoms: _95  and  _98
REMARK   40  A    between atoms: _98  and  _99
REMARK   41  A    between atoms: _99  and  _100
REMARK   42  A    between atoms: _103  and  _105
REMARK   43  A    between atoms: _105  and  _106
REMARK   44  A    between atoms: _105  and  _108
REMARK   45  A    between atoms: _111  and  _113
REMARK   46  A    between atoms: _113  and  _114
REMARK   47  A    between atoms: _113  and  _116
REMARK   48  A    between atoms: _119  and  _121
REMARK   49  A    between atoms: _121  and  _122
REMARK   50  A    between atoms: _121  and  _124
REMARK   51  A    between atoms: _124  and  _125
REMARK   52  A    between atoms: _131  and  _133
REMARK   53  A    between atoms: _133  and  _134
REMARK   54  A    between atoms: _133  and  _136
REMARK   55  A    between atoms: _139  and  _141
REMARK   56  A    between atoms: _141  and  _142
REMARK   57  A    between atoms: _141  and  _144
REMARK   58  A    between atoms: _144  and  _145
REMARK   59  A    between atoms: _150  and  _151
REMARK   60  A    between atoms: _153  and  _155
REMARK   61  A    between atoms: _155  and  _156
REMARK   62  A    between atoms: _155  and  _158
REMARK   63  A    between atoms: _158  and  _159
REMARK   64  A    between atoms: _159  and  _160
REMARK   65  A    between atoms: _162  and  _164
REMARK   66  A    between atoms: _164  and  _165
REMARK   67  A    between atoms: _164  and  _167
REMARK   68  A    between atoms: _167  and  _168
REMARK   69  A    between atoms: _168  and  _169
REMARK   70  A    between atoms: _172  and  _174
REMARK   71  A    between atoms: _174  and  _175
REMARK   72  A    between atoms: _174  and  _177
REMARK   73  A    between atoms: _177  and  _178
REMARK   74  A    between atoms: _178  and  _179
REMARK   75  A    between atoms: _182  and  _184
REMARK   76  A    between atoms: _184  and  _185
REMARK   77  A    between atoms: _184  and  _187
REMARK   78  A    between atoms: _187  and  _188
REMARK   79  A    between atoms: _193  and  _194
REMARK   80  A    between atoms: _196  and  _198
REMARK   81  A    between atoms: _198  and  _199
REMARK   82  A    between atoms: _198  and  _201
REMARK   83  A    between atoms: _201  and  _202
REMARK   84  A    between atoms: _212  and  _214
REMARK   85  A    between atoms: _214  and  _215
REMARK   86  A    between atoms: _214  and  _217
REMARK   87  A    between atoms: _217  and  _218
REMARK   88  A    between atoms: _218  and  _219
REMARK   89  A    between atoms: _222  and  _224
REMARK   90  A    between atoms: _224  and  _225
REMARK   91  A    between atoms: _224  and  _227
REMARK   92  A    between atoms: _227  and  _228
REMARK   93  A    between atoms: _228  and  _229
REMARK   94  A    between atoms: _229  and  _230
REMARK   95  A    between atoms: _239  and  _241
REMARK   96  A    between atoms: _241  and  _242
REMARK   97  A    between atoms: _241  and  _244
REMARK   98  A    between atoms: _244  and  _245
REMARK   99  A    between atoms: _245  and  _246
REMARK  100  A    between atoms: _249  and  _251
REMARK  101  A    between atoms: _251  and  _252
REMARK  102  A    between atoms: _251  and  _254
REMARK  103  A    between atoms: _254  and  _255
REMARK  104  A    between atoms: _258  and  _260
REMARK  105  A    between atoms: _260  and  _261
REMARK  106  A    between atoms: _260  and  _263
REMARK  107  A    between atoms: _263  and  _264
REMARK  108  A    between atoms: _264  and  _265
REMARK  109  A    between atoms: _270  and  _272
REMARK  110  A    between atoms: _272  and  _273
REMARK  111  A    between atoms: _272  and  _275
REMARK  112  A    between atoms: _275  and  _276
REMARK  113  A    between atoms: _276  and  _277
REMARK  114  A    between atoms: _277  and  _278
REMARK  115  A    between atoms: _278  and  _279
REMARK  116  A    between atoms: _283  and  _285
REMARK  117  A    between atoms: _285  and  _286
REMARK  118  A    between atoms: _289  and  _291
REMARK  119  A    between atoms: _291  and  _292
REMARK  120  A    between atoms: _294  and  _296
REMARK  121  A    between atoms: _296  and  _297
REMARK  122  A    between atoms: _296  and  _299
REMARK  123  A    between atoms: _299  and  _300
REMARK  124  A    between atoms: _305  and  _307
REMARK  125  A    between atoms: _307  and  _308
REMARK  126  A    between atoms: _307  and  _310
REMARK  127  A    between atoms: _310  and  _311
REMARK  128  A    between atoms: _311  and  _312
REMARK  129  A    between atoms: _315  and  _317
REMARK  130  A    between atoms: _317  and  _318
REMARK  131  A    between atoms: _317  and  _320
REMARK  132  A    between atoms: _320  and  _321
REMARK  133  A    between atoms: _323  and  _325
REMARK  134  A    between atoms: _325  and  _326
REMARK  135  A    between atoms: _325  and  _328
REMARK  136  A    between atoms: _328  and  _329
REMARK  137  A    between atoms: _335  and  _337
REMARK  138  A    between atoms: _337  and  _338
REMARK  139  A    between atoms: _337  and  _340
REMARK  140  A    between atoms: _343  and  _345
REMARK  141  A    between atoms: _345  and  _346
REMARK  142  A    between atoms: _345  and  _348
REMARK  143  A    between atoms: _348  and  _349
REMARK  144  A    between atoms: _352  and  _354
REMARK  145  A    between atoms: _354  and  _355
REMARK  146  A    between atoms: _354  and  _357
REMARK  147  A    between atoms: _357  and  _358
REMARK  148  A    between atoms: _361  and  _363
REMARK  149  A    between atoms: _363  and  _364
REMARK  150  A    between atoms: _363  and  _366
REMARK  151  A    between atoms: _366  and  _367
REMARK  152  A    between atoms: _370  and  _372
REMARK  153  A    between atoms: _372  and  _373
REMARK  154  A    between atoms: _372  and  _375
REMARK  155  A    between atoms: _375  and  _376
REMARK  156  A    between atoms: _379  and  _381
REMARK  157  A    between atoms: _381  and  _382
REMARK  158  A    between atoms: _381  and  _384
REMARK  159  A    between atoms: _384  and  _385
REMARK  160  A    between atoms: _390  and  _391
REMARK  161  A    between atoms: _393  and  _395
REMARK  162  A    between atoms: _395  and  _396
REMARK  163  A    between atoms: _395  and  _398
REMARK  164  A    between atoms: _398  and  _399
REMARK  165  A    between atoms: _404  and  _405
REMARK  166  A    between atoms: _407  and  _409
REMARK  167  A    between atoms: _409  and  _410
REMARK  168  A    between atoms: _409  and  _412
REMARK  169  A    between atoms: _412  and  _413
REMARK  170  A    between atoms: _416  and  _418
REMARK  171  A    between atoms: _418  and  _419
REMARK  172  A    between atoms: _418  and  _421
REMARK  173  A    between atoms: _421  and  _422
REMARK  174  A    between atoms: _422  and  _423
REMARK  175  A    between atoms: _428  and  _430
REMARK  176  A    between atoms: _430  and  _431
REMARK  177  A    between atoms: _430  and  _433
REMARK  178  A    between atoms: _436  and  _438
REMARK  179  A    between atoms: _438  and  _439
REMARK  180  A    between atoms: _438  and  _441
REMARK  181  A    between atoms: _441  and  _442
REMARK  182  A    between atoms: _445  and  _447
REMARK  183  A    between atoms: _447  and  _448
REMARK  184  A    between atoms: _447  and  _450
REMARK  185  A    between atoms: _450  and  _451
REMARK  186  A    between atoms: _453  and  _455
REMARK  187  A    between atoms: _455  and  _456
REMARK  188  A    between atoms: _458  and  _460
REMARK  189  A    between atoms: _460  and  _461
REMARK  190  A    between atoms: _460  and  _463
REMARK  191  A    between atoms: _463  and  _464
REMARK  192  A    between atoms: _464  and  _790
REMARK  193  A    between atoms: _465  and  _467
REMARK  194  A    between atoms: _467  and  _468
REMARK  195  A    between atoms: _467  and  _470
REMARK  196  A    between atoms: _470  and  _471
REMARK  197  A    between atoms: _476  and  _477
REMARK  198  A    between atoms: _479  and  _481
REMARK  199  A    between atoms: _481  and  _482
REMARK  200  A    between atoms: _481  and  _484
REMARK  201  A    between atoms: _484  and  _485
REMARK  202  A    between atoms: _485  and  _486
REMARK  203  A    between atoms: _491  and  _493
REMARK  204  A    between atoms: _493  and  _494
REMARK  205  A    between atoms: _493  and  _496
REMARK  206  A    between atoms: _496  and  _497
REMARK  207  A    between atoms: _497  and  _498
REMARK  208  A    between atoms: _503  and  _505
REMARK  209  A    between atoms: _505  and  _506
REMARK  210  A    between atoms: _505  and  _508
REMARK  211  A    between atoms: _508  and  _509
REMARK  212  A    between atoms: _514  and  _515
REMARK  213  A    between atoms: _517  and  _519
REMARK  214  A    between atoms: _519  and  _520
REMARK  215  A    between atoms: _523  and  _525
REMARK  216  A    between atoms: _525  and  _526
REMARK  217  A    between atoms: _525  and  _528
REMARK  218  A    between atoms: _528  and  _529
REMARK  219  A    between atoms: _534  and  _535
REMARK  220  A    between atoms: _537  and  _539
REMARK  221  A    between atoms: _539  and  _540
REMARK  222  A    between atoms: _539  and  _542
REMARK  223  A    between atoms: _542  and  _543
REMARK  224  A    between atoms: _548  and  _549
REMARK  225  A    between atoms: _551  and  _553
REMARK  226  A    between atoms: _553  and  _554
REMARK  227  A    between atoms: _553  and  _556
REMARK  228  A    between atoms: _556  and  _557
REMARK  229  A    between atoms: _560  and  _562
REMARK  230  A    between atoms: _562  and  _563
REMARK  231  A    between atoms: _562  and  _565
REMARK  232  A    between atoms: _565  and  _566
REMARK  233  A    between atoms: _576  and  _578
REMARK  234  A    between atoms: _578  and  _579
REMARK  235  A    between atoms: _582  and  _584
REMARK  236  A    between atoms: _584  and  _585
REMARK  237  A    between atoms: _588  and  _590
REMARK  238  A    between atoms: _590  and  _591
REMARK  239  A    between atoms: _590  and  _593
REMARK  240  A    between atoms: _593  and  _594
REMARK  241  A    between atoms: _597  and  _599
REMARK  242  A    between atoms: _599  and  _600
REMARK  243  A    between atoms: _599  and  _602
REMARK  244  A    between atoms: _602  and  _603
REMARK  245  A    between atoms: _606  and  _608
REMARK  246  A    between atoms: _608  and  _609
REMARK  247  A    between atoms: _608  and  _611
REMARK  248  A    between atoms: _611  and  _612
REMARK  249  A    between atoms: _615  and  _617
REMARK  250  A    between atoms: _617  and  _618
REMARK  251  A    between atoms: _617  and  _620
REMARK  252  A    between atoms: _620  and  _621
REMARK  253  A    between atoms: _621  and  _622
REMARK  254  A    between atoms: _622  and  _623
REMARK  255  A    between atoms: _623  and  _624
REMARK  256  A    between atoms: _628  and  _630
REMARK  257  A    between atoms: _630  and  _631
REMARK  258  A    between atoms: _630  and  _633
REMARK  259  A    between atoms: _633  and  _634
REMARK  260  A    between atoms: _639  and  _641
REMARK  261  A    between atoms: _641  and  _642
REMARK  262  A    between atoms: _641  and  _644
REMARK  263  A    between atoms: _644  and  _645
REMARK  264  A    between atoms: _645  and  _646
REMARK  265  A    between atoms: _646  and  _647
REMARK  266  A    between atoms: _647  and  _648
REMARK  267  A    between atoms: _652  and  _654
REMARK  268  A    between atoms: _654  and  _655
REMARK  269  A    between atoms: _654  and  _657
REMARK  270  A    between atoms: _657  and  _658
REMARK  271  A    between atoms: _668  and  _670
REMARK  272  A    between atoms: _670  and  _671
REMARK  273  A    between atoms: _674  and  _676
REMARK  274  A    between atoms: _676  and  _677
REMARK  275  A    between atoms: _679  and  _681
REMARK  276  A    between atoms: _681  and  _682
REMARK  277  A    between atoms: _685  and  _687
REMARK  278  A    between atoms: _687  and  _688
REMARK  279  A    between atoms: _691  and  _693
REMARK  280  A    between atoms: _693  and  _694
REMARK  281  A    between atoms: _693  and  _696
REMARK  282  A    between atoms: _696  and  _697
REMARK  283  A    between atoms: _697  and  _698
REMARK  284  A    between atoms: _701  and  _703
REMARK  285  A    between atoms: _703  and  _704
REMARK  286  A    between atoms: _703  and  _706
REMARK  287  A    between atoms: _706  and  _707
REMARK  288  A    between atoms: _712  and  _713
REMARK  289  A    between atoms: _715  and  _717
REMARK  290  A    between atoms: _717  and  _718
REMARK  291  A    between atoms: _717  and  _720
REMARK  292  A    between atoms: _720  and  _721
REMARK  293  A    between atoms: _726  and  _727
REMARK  294  A    between atoms: _729  and  _731
REMARK  295  A    between atoms: _731  and  _732
REMARK  296  A    between atoms: _731  and  _734
REMARK  297  A    between atoms: _734  and  _735
REMARK  298  A    between atoms: _735  and  _736
REMARK  299  A    between atoms: _736  and  _737
REMARK  300  A    between atoms: _746  and  _748
REMARK  301  A    between atoms: _748  and  _749
REMARK  302  A    between atoms: _752  and  _754
REMARK  303  A    between atoms: _754  and  _755
REMARK  304  A    between atoms: _754  and  _757
REMARK  305  A    between atoms: _757  and  _758
REMARK  306  A    between atoms: _763  and  _764
REMARK  307  A    between atoms: _766  and  _768
REMARK  308  A    between atoms: _768  and  _769
REMARK  309  A    between atoms: _768  and  _771
REMARK  310  A    between atoms: _771  and  _772
REMARK  311  A    between atoms: _775  and  _777
REMARK  312  A    between atoms: _777  and  _778
REMARK  313  A    between atoms: _777  and  _780
REMARK  314  A    between atoms: _780  and  _781
REMARK  315  A    between atoms: _784  and  _786
REMARK  316  A    between atoms: _786  and  _787
REMARK  317  A    between atoms: _786  and  _789
REMARK  318  A    between atoms: _789  and  _790
REMARK  319  A    between atoms: _791  and  _793
REMARK  320  A    between atoms: _793  and  _794
REMARK  321  A    between atoms: _793  and  _796
REMARK  322  A    between atoms: _799  and  _801
REMARK  323  A    between atoms: _801  and  _802
REMARK  324  A    between atoms: _801  and  _804
REMARK  325  A    between atoms: _804  and  _805
REMARK  326  A    between atoms: _805  and  _806
REMARK  327  A    between atoms: _809  and  _811
REMARK  328  A    between atoms: _811  and  _812
REMARK  329  A    between atoms: _811  and  _814
REMARK  330  A    between atoms: _814  and  _815
REMARK  331  A    between atoms: _825  and  _827
REMARK  332  A    between atoms: _827  and  _828
REMARK  333  A    between atoms: _827  and  _830
REMARK  334  A    between atoms: _830  and  _831
REMARK  335  A    between atoms: _834  and  _836
REMARK  336  A    between atoms: _836  and  _837
REMARK  337  A    between atoms: _836  and  _839
REMARK  338  A    between atoms: _839  and  _840
REMARK  339  A    between atoms: _840  and  _841
REMARK  340  A    between atoms: _841  and  _842
REMARK  341  A    between atoms: _851  and  _853
REMARK  342  A    between atoms: _853  and  _854
REMARK  343  A    between atoms: _853  and  _856
REMARK  344  A    between atoms: _856  and  _857
REMARK  345  A    between atoms: _862  and  _863
REMARK                            x       y       z     vdW  Elec       q    Type
REMARK                         _______ _______ _______ _____ _____    ______ ____
ROOT
ATOM      1  O   HOH     1      39.580  63.942   0.246  0.00  0.00    +0.000 OA
ENDROOT
TORSDOF 0
REMARK  Name = ../refined-set-2016/1fzj/1fzj_pocket.pdb
REMARK  345 active torsions:
REMARK  status: ('A' for Active; 'I' for Inactive)
REMARK    1  A    between atoms: _1  and  _3
REMARK    2  A    between atoms: _3  and  _4
REMARK    3  A    between atoms: _3  and  _6
REMARK    4  A    between atoms: _6  and  _7
REMARK    5  A    between atoms: _10  and  _12
REMARK    6  A    between atoms: _12  and  _13
REMARK    7  A    between atoms: _12  and  _15
REMARK    8  A    between atoms: _15  and  _16
REMARK    9  A    between atoms: _16  and  _17
REMARK   10  A    between atoms: _17  and  _18
REMARK   11  A    between atoms: _27  and  _29
REMARK   12  A    between atoms: _29  and  _30
REMARK   13  A    between atoms: _29  and  _32
REMARK   14  A    between atoms: _32  and  _33
REMARK   15  A    between atoms: _38  and  _39
REMARK   16  A    between atoms: _41  and  _43
REMARK   17  A    between atoms: _43  and  _44
REMARK   18  A    between atoms: _43  and  _46
REMARK   19  A    between atoms: _46  and  _47
REMARK   20  A    between atoms: _53  and  _55
REMARK   21  A    between atoms: _55  and  _56
REMARK   22  A    between atoms: _55  and  _58
REMARK   23  A    between atoms: _61  and  _63
REMARK   24  A    between atoms: _63  and  _64
REMARK   25  A    between atoms: _63  and  _66
REMARK   26  A    between atoms: _66  and  _67
REMARK   27  A    between atoms: _70  and  _72
REMARK   28  A    between atoms: _72  and  _73
REMARK   29  A    between atoms: _72  and  _75
REMARK   30  A    between atoms: _75  and  _76
REMARK   31  A    between atoms: _81  and  _82
REMARK   32  A    between atoms: _84  and  _86
REMARK   33  A    between atoms: _86  and  _87
REMARK   34  A    between atoms: _86  and  _89
REMARK   35  A    between atoms: _89  and  _90
REMARK   36  A    between atoms: _90  and  _91
REMARK   37  A    between atoms: _93  and  _95
REMARK   38  A    between atoms: _95  and  _96
REMARK   39  A    between atoms: _95  and  _98
REMARK   40  A    between atoms: _98  and  _99
REMARK   41  A    between atoms: _99  and  _100
REMARK   42  A    between atoms: _103  and  _105
REMARK   43  A    between atoms: _105  and  _106
REMARK   44  A    between atoms: _105  and  _108
REMARK   45  A    between atoms: _111  and  _113
REMARK   46  A    between atoms: _113  and  _114
REMARK   47  A    between atoms: _113  and  _116
REMARK   48  A    between atoms: _119  and  _121
REMARK   49  A    between atoms: _121  and  _122
REMARK   50  A    between atoms: _121  and  _124
REMARK   51  A    between atoms: _124  and  _125
REMARK   52  A    between atoms: _131  and  _133
REMARK   53  A    between atoms: _133  and  _134
REMARK   54  A    between atoms: _133  and  _136
REMARK   55  A    between atoms: _139  and  _141
REMARK   56  A    between atoms: _141  and  _142
REMARK   57  A    between atoms: _141  and  _144
REMARK   58  A    between atoms: _144  and  _145
REMARK   59  A    between atoms: _150  and  _151
REMARK   60  A    between atoms: _153  and  _155
REMARK   61  A    between atoms: _155  and  _156
REMARK   62  A    between atoms: _155  and  _158
REMARK   63  A    between atoms: _158  and  _159
REMARK   64  A    between atoms: _159  and  _160
REMARK   65  A    between atoms: _162  and  _164
REMARK   66  A    between atoms: _164  and  _165
REMARK   67  A    between atoms: _164  and  _167
REMARK   68  A    between atoms: _167  and  _168
REMARK   69  A    between atoms: _168  and  _169
REMARK   70  A    between atoms: _172  and  _174
REMARK   71  A    between atoms: _174  and  _175
REMARK   72  A    between atoms: _174  and  _177
REMARK   73  A    between atoms: _177  and  _178
REMARK   74  A    between atoms: _178  and  _179
REMARK   75  A    between atoms: _182  and  _184
REMARK   76  A    between atoms: _184  and  _185
REMARK   77  A    between atoms: _184  and  _187
REMARK   78  A    between atoms: _187  and  _188
REMARK   79  A    between atoms: _193  and  _194
REMARK   80  A    between atoms: _196  and  _198
REMARK   81  A    between atoms: _198  and  _199
REMARK   82  A    between atoms: _198  and  _201
REMARK   83  A    between atoms: _201  and  _202
REMARK   84  A    between atoms: _212  and  _214
REMARK   85  A    between atoms: _214  and  _215
REMARK   86  A    between atoms: _214  and  _217
REMARK   87  A    between atoms: _217  and  _218
REMARK   88  A    between atoms: _218  and  _219
REMARK   89  A    between atoms: _222  and  _224
REMARK   90  A    between atoms: _224  and  _225
REMARK   91  A    between atoms: _224  and  _227
REMARK   92  A    between atoms: _227  and  _228
REMARK   93  A    between atoms: _228  and  _229
REMARK   94  A    between atoms: _229  and  _230
REMARK   95  A    between atoms: _239  and  _241
REMARK   96  A    between atoms: _241  and  _242
REMARK   97  A    between atoms: _241  and  _244
REMARK   98  A    between atoms: _244  and  _245
REMARK   99  A    between atoms: _245  and  _246
REMARK  100  A    between atoms: _249  and  _251
REMARK  101  A    between atoms: _251  and  _252
REMARK  102  A    between atoms: _251  and  _254
REMARK  103  A    between atoms: _254  and  _255
REMARK  104  A    between atoms: _258  and  _260
REMARK  105  A    between atoms: _260  and  _261
REMARK  106  A    between atoms: _260  and  _263
REMARK  107  A    between atoms: _263  and  _264
REMARK  108  A    between atoms: _264  and  _265
REMARK  109  A    between atoms: _270  and  _272
REMARK  110  A    between atoms: _272  and  _273
REMARK  111  A    between atoms: _272  and  _275
REMARK  112  A    between atoms: _275  and  _276
REMARK  113  A    between atoms: _276  and  _277
REMARK  114  A    between atoms: _277  and  _278
REMARK  115  A    between atoms: _278  and  _279
REMARK  116  A    between atoms: _283  and  _285
REMARK  117  A    between atoms: _285  and  _286
REMARK  118  A    between atoms: _289  and  _291
REMARK  119  A    between atoms: _291  and  _292
REMARK  120  A    between atoms: _294  and  _296
REMARK  121  A    between atoms: _296  and  _297
REMARK  122  A    between atoms: _296  and  _299
REMARK  123  A    between atoms: _299  and  _300
REMARK  124  A    between atoms: _305  and  _307
REMARK  125  A    between atoms: _307  and  _308
REMARK  126  A    between atoms: _307  and  _310
REMARK  127  A    between atoms: _310  and  _311
REMARK  128  A    between atoms: _311  and  _312
REMARK  129  A    between atoms: _315  and  _317
REMARK  130  A    between atoms: _317  and  _318
REMARK  131  A    between atoms: _317  and  _320
REMARK  132  A    between atoms: _320  and  _321
REMARK  133  A    between atoms: _323  and  _325
REMARK  134  A    between atoms: _325  and  _326
REMARK  135  A    between atoms: _325  and  _328
REMARK  136  A    between atoms: _328  and  _329
REMARK  137  A    between atoms: _335  and  _337
REMARK  138  A    between atoms: _337  and  _338
REMARK  139  A    between atoms: _337  and  _340
REMARK  140  A    between atoms: _343  and  _345
REMARK  141  A    between atoms: _345  and  _346
REMARK  142  A    between atoms: _345  and  _348
REMARK  143  A    between atoms: _348  and  _349
REMARK  144  A    between atoms: _352  and  _354
REMARK  145  A    between atoms: _354  and  _355
REMARK  146  A    between atoms: _354  and  _357
REMARK  147  A    between atoms: _357  and  _358
REMARK  148  A    between atoms: _361  and  _363
REMARK  149  A    between atoms: _363  and  _364
REMARK  150  A    between atoms: _363  and  _366
REMARK  151  A    between atoms: _366  and  _367
REMARK  152  A    between atoms: _370  and  _372
REMARK  153  A    between atoms: _372  and  _373
REMARK  154  A    between atoms: _372  and  _375
REMARK  155  A    between atoms: _375  and  _376
REMARK  156  A    between atoms: _379  and  _381
REMARK  157  A    between atoms: _381  and  _382
REMARK  158  A    between atoms: _381  and  _384
REMARK  159  A    between atoms: _384  and  _385
REMARK  160  A    between atoms: _390  and  _391
REMARK  161  A    between atoms: _393  and  _395
REMARK  162  A    between atoms: _395  and  _396
REMARK  163  A    between atoms: _395  and  _398
REMARK  164  A    between atoms: _398  and  _399
REMARK  165  A    between atoms: _404  and  _405
REMARK  166  A    between atoms: _407  and  _409
REMARK  167  A    between atoms: _409  and  _410
REMARK  168  A    between atoms: _409  and  _412
REMARK  169  A    between atoms: _412  and  _413
REMARK  170  A    between atoms: _416  and  _418
REMARK  171  A    between atoms: _418  and  _419
REMARK  172  A    between atoms: _418  and  _421
REMARK  173  A    between atoms: _421  and  _422
REMARK  174  A    between atoms: _422  and  _423
REMARK  175  A    between atoms: _428  and  _430
REMARK  176  A    between atoms: _430  and  _431
REMARK  177  A    between atoms: _430  and  _433
REMARK  178  A    between atoms: _436  and  _438
REMARK  179  A    between atoms: _438  and  _439
REMARK  180  A    between atoms: _438  and  _441
REMARK  181  A    between atoms: _441  and  _442
REMARK  182  A    between atoms: _445  and  _447
REMARK  183  A    between atoms: _447  and  _448
REMARK  184  A    between atoms: _447  and  _450
REMARK  185  A    between atoms: _450  and  _451
REMARK  186  A    between atoms: _453  and  _455
REMARK  187  A    between atoms: _455  and  _456
REMARK  188  A    between atoms: _458  and  _460
REMARK  189  A    between atoms: _460  and  _461
REMARK  190  A    between atoms: _460  and  _463
REMARK  191  A    between atoms: _463  and  _464
REMARK  192  A    between atoms: _464  and  _790
REMARK  193  A    between atoms: _465  and  _467
REMARK  194  A    between atoms: _467  and  _468
REMARK  195  A    between atoms: _467  and  _470
REMARK  196  A    between atoms: _470  and  _471
REMARK  197  A    between atoms: _476  and  _477
REMARK  198  A    between atoms: _479  and  _481
REMARK  199  A    between atoms: _481  and  _482
REMARK  200  A    between atoms: _481  and  _484
REMARK  201  A    between atoms: _484  and  _485
REMARK  202  A    between atoms: _485  and  _486
REMARK  203  A    between atoms: _491  and  _493
REMARK  204  A    between atoms: _493  and  _494
REMARK  205  A    between atoms: _493  and  _496
REMARK  206  A    between atoms: _496  and  _497
REMARK  207  A    between atoms: _497  and  _498
REMARK  208  A    between atoms: _503  and  _505
REMARK  209  A    between atoms: _505  and  _506
REMARK  210  A    between atoms: _505  and  _508
REMARK  211  A    between atoms: _508  and  _509
REMARK  212  A    between atoms: _514  and  _515
REMARK  213  A    between atoms: _517  and  _519
REMARK  214  A    between atoms: _519  and  _520
REMARK  215  A    between atoms: _523  and  _525
REMARK  216  A    between atoms: _525  and  _526
REMARK  217  A    between atoms: _525  and  _528
REMARK  218  A    between atoms: _528  and  _529
REMARK  219  A    between atoms: _534  and  _535
REMARK  220  A    between atoms: _537  and  _539
REMARK  221  A    between atoms: _539  and  _540
REMARK  222  A    between atoms: _539  and  _542
REMARK  223  A    between atoms: _542  and  _543
REMARK  224  A    between atoms: _548  and  _549
REMARK  225  A    between atoms: _551  and  _553
REMARK  226  A    between atoms: _553  and  _554
REMARK  227  A    between atoms: _553  and  _556
REMARK  228  A    between atoms: _556  and  _557
REMARK  229  A    between atoms: _560  and  _562
REMARK  230  A    between atoms: _562  and  _563
REMARK  231  A    between atoms: _562  and  _565
REMARK  232  A    between atoms: _565  and  _566
REMARK  233  A    between atoms: _576  and  _578
REMARK  234  A    between atoms: _578  and  _579
REMARK  235  A    between atoms: _582  and  _584
REMARK  236  A    between atoms: _584  and  _585
REMARK  237  A    between atoms: _588  and  _590
REMARK  238  A    between atoms: _590  and  _591
REMARK  239  A    between atoms: _590  and  _593
REMARK  240  A    between atoms: _593  and  _594
REMARK  241  A    between atoms: _597  and  _599
REMARK  242  A    between atoms: _599  and  _600
REMARK  243  A    between atoms: _599  and  _602
REMARK  244  A    between atoms: _602  and  _603
REMARK  245  A    between atoms: _606  and  _608
REMARK  246  A    between atoms: _608  and  _609
REMARK  247  A    between atoms: _608  and  _611
REMARK  248  A    between atoms: _611  and  _612
REMARK  249  A    between atoms: _615  and  _617
REMARK  250  A    between atoms: _617  and  _618
REMARK  251  A    between atoms: _617  and  _620
REMARK  252  A    between atoms: _620  and  _621
REMARK  253  A    between atoms: _621  and  _622
REMARK  254  A    between atoms: _622  and  _623
REMARK  255  A    between atoms: _623  and  _624
REMARK  256  A    between atoms: _628  and  _630
REMARK  257  A    between atoms: _630  and  _631
REMARK  258  A    between atoms: _630  and  _633
REMARK  259  A    between atoms: _633  and  _634
REMARK  260  A    between atoms: _639  and  _641
REMARK  261  A    between atoms: _641  and  _642
REMARK  262  A    between atoms: _641  and  _644
REMARK  263  A    between atoms: _644  and  _645
REMARK  264  A    between atoms: _645  and  _646
REMARK  265  A    between atoms: _646  and  _647
REMARK  266  A    between atoms: _647  and  _648
REMARK  267  A    between atoms: _652  and  _654
REMARK  268  A    between atoms: _654  and  _655
REMARK  269  A    between atoms: _654  and  _657
REMARK  270  A    between atoms: _657  and  _658
REMARK  271  A    between atoms: _668  and  _670
REMARK  272  A    between atoms: _670  and  _671
REMARK  273  A    between atoms: _674  and  _676
REMARK  274  A    between atoms: _676  and  _677
REMARK  275  A    between atoms: _679  and  _681
REMARK  276  A    between atoms: _681  and  _682
REMARK  277  A    between atoms: _685  and  _687
REMARK  278  A    between atoms: _687  and  _688
REMARK  279  A    between atoms: _691  and  _693
REMARK  280  A    between atoms: _693  and  _694
REMARK  281  A    between atoms: _693  and  _696
REMARK  282  A    between atoms: _696  and  _697
REMARK  283  A    between atoms: _697  and  _698
REMARK  284  A    between atoms: _701  and  _703
REMARK  285  A    between atoms: _703  and  _704
REMARK  286  A    between atoms: _703  and  _706
REMARK  287  A    between atoms: _706  and  _707
REMARK  288  A    between atoms: _712  and  _713
REMARK  289  A    between atoms: _715  and  _717
REMARK  290  A    between atoms: _717  and  _718
REMARK  291  A    between atoms: _717  and  _720
REMARK  292  A    between atoms: _720  and  _721
REMARK  293  A    between atoms: _726  and  _727
REMARK  294  A    between atoms: _729  and  _731
REMARK  295  A    between atoms: _731  and  _732
REMARK  296  A    between atoms: _731  and  _734
REMARK  297  A    between atoms: _734  and  _735
REMARK  298  A    between atoms: _735  and  _736
REMARK  299  A    between atoms: _736  and  _737
REMARK  300  A    between atoms: _746  and  _748
REMARK  301  A    between atoms: _748  and  _749
REMARK  302  A    between atoms: _752  and  _754
REMARK  303  A    between atoms: _754  and  _755
REMARK  304  A    between atoms: _754  and  _757
REMARK  305  A    between atoms: _757  and  _758
REMARK  306  A    between atoms: _763  and  _764
REMARK  307  A    between atoms: _766  and  _768
REMARK  308  A    between atoms: _768  and  _769
REMARK  309  A    between atoms: _768  and  _771
REMARK  310  A    between atoms: _771  and  _772
REMARK  311  A    between atoms: _775  and  _777
REMARK  312  A    between atoms: _777  and  _778
REMARK  313  A    between atoms: _777  and  _780
REMARK  314  A    between atoms: _780  and  _781
REMARK  315  A    between atoms: _784  and  _786
REMARK  316  A    between atoms: _786  and  _787
REMARK  317  A    between atoms: _786  and  _789
REMARK  318  A    between atoms: _789  and  _790
REMARK  319  A    between atoms: _791  and  _793
REMARK  320  A    between atoms: _793  and  _794
REMARK  321  A    between atoms: _793  and  _796
REMARK  322  A    between atoms: _799  and  _801
REMARK  323  A    between atoms: _801  and  _802
REMARK  324  A    between atoms: _801  and  _804
REMARK  325  A    between atoms: _804  and  _805
REMARK  326  A    between atoms: _805  and  _806
REMARK  327  A    between atoms: _809  and  _811
REMARK  328  A    between atoms: _811  and  _812
REMARK  329  A    between atoms: _811  and  _814
REMARK  330  A    between atoms: _814  and  _815
REMARK  331  A    between atoms: _825  and  _827
REMARK  332  A    between atoms: _827  and  _828
REMARK  333  A    between atoms: _827  and  _830
REMARK  334  A    between atoms: _830  and  _831
REMARK  335  A    between atoms: _834  and  _836
REMARK  336  A    between atoms: _836  and  _837
REMARK  337  A    between atoms: _836  and  _839
REMARK  338  A    between atoms: _839  and  _840
REMARK  339  A    between atoms: _840  and  _841
REMARK  340  A    between atoms: _841  and  _842
REMARK  341  A    between atoms: _851  and  _853
REMARK  342  A    between atoms: _853  and  _854
REMARK  343  A    between atoms: _853  and  _856
REMARK  344  A    between atoms: _856  and  _857
REMARK  345  A    between atoms: _862  and  _863
REMARK                            x       y       z     vdW  Elec       q    Type
REMARK                         _______ _______ _______ _____ _____    ______ ____
ROOT
ATOM      1  O   HOH     1      54.748  63.483   8.413  0.00  0.00    +0.000 OA
ENDROOT
TORSDOF 0
REMARK  Name = ../refined-set-2016/1fzj/1fzj_pocket.pdb
REMARK  345 active torsions:
REMARK  status: ('A' for Active; 'I' for Inactive)
REMARK    1  A    between atoms: _1  and  _3
REMARK    2  A    between atoms: _3  and  _4
REMARK    3  A    between atoms: _3  and  _6
REMARK    4  A    between atoms: _6  and  _7
REMARK    5  A    between atoms: _10  and  _12
REMARK    6  A    between atoms: _12  and  _13
REMARK    7  A    between atoms: _12  and  _15
REMARK    8  A    between atoms: _15  and  _16
REMARK    9  A    between atoms: _16  and  _17
REMARK   10  A    between atoms: _17  and  _18
REMARK   11  A    between atoms: _27  and  _29
REMARK   12  A    between atoms: _29  and  _30
REMARK   13  A    between atoms: _29  and  _32
REMARK   14  A    between atoms: _32  and  _33
REMARK   15  A    between atoms: _38  and  _39
REMARK   16  A    between atoms: _41  and  _43
REMARK   17  A    between atoms: _43  and  _44
REMARK   18  A    between atoms: _43  and  _46
REMARK   19  A    between atoms: _46  and  _47
REMARK   20  A    between atoms: _53  and  _55
REMARK   21  A    between atoms: _55  and  _56
REMARK   22  A    between atoms: _55  and  _58
REMARK   23  A    between atoms: _61  and  _63
REMARK   24  A    between atoms: _63  and  _64
REMARK   25  A    between atoms: _63  and  _66
REMARK   26  A    between atoms: _66  and  _67
REMARK   27  A    between atoms: _70  and  _72
REMARK   28  A    between atoms: _72  and  _73
REMARK   29  A    between atoms: _72  and  _75
REMARK   30  A    between atoms: _75  and  _76
REMARK   31  A    between atoms: _81  and  _82
REMARK   32  A    between atoms: _84  and  _86
REMARK   33  A    between atoms: _86  and  _87
REMARK   34  A    between atoms: _86  and  _89
REMARK   35  A    between atoms: _89  and  _90
REMARK   36  A    between atoms: _90  and  _91
REMARK   37  A    between atoms: _93  and  _95
REMARK   38  A    between atoms: _95  and  _96
REMARK   39  A    between atoms: _95  and  _98
REMARK   40  A    between atoms: _98  and  _99
REMARK   41  A    between atoms: _99  and  _100
REMARK   42  A    between atoms: _103  and  _105
REMARK   43  A    between atoms: _105  and  _106
REMARK   44  A    between atoms: _105  and  _108
REMARK   45  A    between atoms: _111  and  _113
REMARK   46  A    between atoms: _113  and  _114
REMARK   47  A    between atoms: _113  and  _116
REMARK   48  A    between atoms: _119  and  _121
REMARK   49  A    between atoms: _121  and  _122
REMARK   50  A    between atoms: _121  and  _124
REMARK   51  A    between atoms: _124  and  _125
REMARK   52  A    between atoms: _131  and  _133
REMARK   53  A    between atoms: _133  and  _134
REMARK   54  A    between atoms: _133  and  _136
REMARK   55  A    between atoms: _139  and  _141
REMARK   56  A    between atoms: _141  and  _142
REMARK   57  A    between atoms: _141  and  _144
REMARK   58  A    between atoms: _144  and  _145
REMARK   59  A    between atoms: _150  and  _151
REMARK   60  A    between atoms: _153  and  _155
REMARK   61  A    between atoms: _155  and  _156
REMARK   62  A    between atoms: _155  and  _158
REMARK   63  A    between atoms: _158  and  _159
REMARK   64  A    between atoms: _159  and  _160
REMARK   65  A    between atoms: _162  and  _164
REMARK   66  A    between atoms: _164  and  _165
REMARK   67  A    between atoms: _164  and  _167
REMARK   68  A    between atoms: _167  and  _168
REMARK   69  A    between atoms: _168  and  _169
REMARK   70  A    between atoms: _172  and  _174
REMARK   71  A    between atoms: _174  and  _175
REMARK   72  A    between atoms: _174  and  _177
REMARK   73  A    between atoms: _177  and  _178
REMARK   74  A    between atoms: _178  and  _179
REMARK   75  A    between atoms: _182  and  _184
REMARK   76  A    between atoms: _184  and  _185
REMARK   77  A    between atoms: _184  and  _187
REMARK   78  A    between atoms: _187  and  _188
REMARK   79  A    between atoms: _193  and  _194
REMARK   80  A    between atoms: _196  and  _198
REMARK   81  A    between atoms: _198  and  _199
REMARK   82  A    between atoms: _198  and  _201
REMARK   83  A    between atoms: _201  and  _202
REMARK   84  A    between atoms: _212  and  _214
REMARK   85  A    between atoms: _214  and  _215
REMARK   86  A    between atoms: _214  and  _217
REMARK   87  A    between atoms: _217  and  _218
REMARK   88  A    between atoms: _218  and  _219
REMARK   89  A    between atoms: _222  and  _224
REMARK   90  A    between atoms: _224  and  _225
REMARK   91  A    between atoms: _224  and  _227
REMARK   92  A    between atoms: _227  and  _228
REMARK   93  A    between atoms: _228  and  _229
REMARK   94  A    between atoms: _229  and  _230
REMARK   95  A    between atoms: _239  and  _241
REMARK   96  A    between atoms: _241  and  _242
REMARK   97  A    between atoms: _241  and  _244
REMARK   98  A    between atoms: _244  and  _245
REMARK   99  A    between atoms: _245  and  _246
REMARK  100  A    between atoms: _249  and  _251
REMARK  101  A    between atoms: _251  and  _252
REMARK  102  A    between atoms: _251  and  _254
REMARK  103  A    between atoms: _254  and  _255
REMARK  104  A    between atoms: _258  and  _260
REMARK  105  A    between atoms: _260  and  _261
REMARK  106  A    between atoms: _260  and  _263
REMARK  107  A    between atoms: _263  and  _264
REMARK  108  A    between atoms: _264  and  _265
REMARK  109  A    between atoms: _270  and  _272
REMARK  110  A    between atoms: _272  and  _273
REMARK  111  A    between atoms: _272  and  _275
REMARK  112  A    between atoms: _275  and  _276
REMARK  113  A    between atoms: _276  and  _277
REMARK  114  A    between atoms: _277  and  _278
REMARK  115  A    between atoms: _278  and  _279
REMARK  116  A    between atoms: _283  and  _285
REMARK  117  A    between atoms: _285  and  _286
REMARK  118  A    between atoms: _289  and  _291
REMARK  119  A    between atoms: _291  and  _292
REMARK  120  A    between atoms: _294  and  _296
REMARK  121  A    between atoms: _296  and  _297
REMARK  122  A    between atoms: _296  and  _299
REMARK  123  A    between atoms: _299  and  _300
REMARK  124  A    between atoms: _305  and  _307
REMARK  125  A    between atoms: _307  and  _308
REMARK  126  A    between atoms: _307  and  _310
REMARK  127  A    between atoms: _310  and  _311
REMARK  128  A    between atoms: _311  and  _312
REMARK  129  A    between atoms: _315  and  _317
REMARK  130  A    between atoms: _317  and  _318
REMARK  131  A    between atoms: _317  and  _320
REMARK  132  A    between atoms: _320  and  _321
REMARK  133  A    between atoms: _323  and  _325
REMARK  134  A    between atoms: _325  and  _326
REMARK  135  A    between atoms: _325  and  _328
REMARK  136  A    between atoms: _328  and  _329
REMARK  137  A    between atoms: _335  and  _337
REMARK  138  A    between atoms: _337  and  _338
REMARK  139  A    between atoms: _337  and  _340
REMARK  140  A    between atoms: _343  and  _345
REMARK  141  A    between atoms: _345  and  _346
REMARK  142  A    between atoms: _345  and  _348
REMARK  143  A    between atoms: _348  and  _349
REMARK  144  A    between atoms: _352  and  _354
REMARK  145  A    between atoms: _354  and  _355
REMARK  146  A    between atoms: _354  and  _357
REMARK  147  A    between atoms: _357  and  _358
REMARK  148  A    between atoms: _361  and  _363
REMARK  149  A    between atoms: _363  and  _364
REMARK  150  A    between atoms: _363  and  _366
REMARK  151  A    between atoms: _366  and  _367
REMARK  152  A    between atoms: _370  and  _372
REMARK  153  A    between atoms: _372  and  _373
REMARK  154  A    between atoms: _372  and  _375
REMARK  155  A    between atoms: _375  and  _376
REMARK  156  A    between atoms: _379  and  _381
REMARK  157  A    between atoms: _381  and  _382
REMARK  158  A    between atoms: _381  and  _384
REMARK  159  A    between atoms: _384  and  _385
REMARK  160  A    between atoms: _390  and  _391
REMARK  161  A    between atoms: _393  and  _395
REMARK  162  A    between atoms: _395  and  _396
REMARK  163  A    between atoms: _395  and  _398
REMARK  164  A    between atoms: _398  and  _399
REMARK  165  A    between atoms: _404  and  _405
REMARK  166  A    between atoms: _407  and  _409
REMARK  167  A    between atoms: _409  and  _410
REMARK  168  A    between atoms: _409  and  _412
REMARK  169  A    between atoms: _412  and  _413
REMARK  170  A    between atoms: _416  and  _418
REMARK  171  A    between atoms: _418  and  _419
REMARK  172  A    between atoms: _418  and  _421
REMARK  173  A    between atoms: _421  and  _422
REMARK  174  A    between atoms: _422  and  _423
REMARK  175  A    between atoms: _428  and  _430
REMARK  176  A    between atoms: _430  and  _431
REMARK  177  A    between atoms: _430  and  _433
REMARK  178  A    between atoms: _436  and  _438
REMARK  179  A    between atoms: _438  and  _439
REMARK  180  A    between atoms: _438  and  _441
REMARK  181  A    between atoms: _441  and  _442
REMARK  182  A    between atoms: _445  and  _447
REMARK  183  A    between atoms: _447  and  _448
REMARK  184  A    between atoms: _447  and  _450
REMARK  185  A    between atoms: _450  and  _451
REMARK  186  A    between atoms: _453  and  _455
REMARK  187  A    between atoms: _455  and  _456
REMARK  188  A    between atoms: _458  and  _460
REMARK  189  A    between atoms: _460  and  _461
REMARK  190  A    between atoms: _460  and  _463
REMARK  191  A    between atoms: _463  and  _464
REMARK  192  A    between atoms: _464  and  _790
REMARK  193  A    between atoms: _465  and  _467
REMARK  194  A    between atoms: _467  and  _468
REMARK  195  A    between atoms: _467  and  _470
REMARK  196  A    between atoms: _470  and  _471
REMARK  197  A    between atoms: _476  and  _477
REMARK  198  A    between atoms: _479  and  _481
REMARK  199  A    between atoms: _481  and  _482
REMARK  200  A    between atoms: _481  and  _484
REMARK  201  A    between atoms: _484  and  _485
REMARK  202  A    between atoms: _485  and  _486
REMARK  203  A    between atoms: _491  and  _493
REMARK  204  A    between atoms: _493  and  _494
REMARK  205  A    between atoms: _493  and  _496
REMARK  206  A    between atoms: _496  and  _497
REMARK  207  A    between atoms: _497  and  _498
REMARK  208  A    between atoms: _503  and  _505
REMARK  209  A    between atoms: _505  and  _506
REMARK  210  A    between atoms: _505  and  _508
REMARK  211  A    between atoms: _508  and  _509
REMARK  212  A    between atoms: _514  and  _515
REMARK  213  A    between atoms: _517  and  _519
REMARK  214  A    between atoms: _519  and  _520
REMARK  215  A    between atoms: _523  and  _525
REMARK  216  A    between atoms: _525  and  _526
REMARK  217  A    between atoms: _525  and  _528
REMARK  218  A    between atoms: _528  and  _529
REMARK  219  A    between atoms: _534  and  _535
REMARK  220  A    between atoms: _537  and  _539
REMARK  221  A    between atoms: _539  and  _540
REMARK  222  A    between atoms: _539  and  _542
REMARK  223  A    between atoms: _542  and  _543
REMARK  224  A    between atoms: _548  and  _549
REMARK  225  A    between atoms: _551  and  _553
REMARK  226  A    between atoms: _553  and  _554
REMARK  227  A    between atoms: _553  and  _556
REMARK  228  A    between atoms: _556  and  _557
REMARK  229  A    between atoms: _560  and  _562
REMARK  230  A    between atoms: _562  and  _563
REMARK  231  A    between atoms: _562  and  _565
REMARK  232  A    between atoms: _565  and  _566
REMARK  233  A    between atoms: _576  and  _578
REMARK  234  A    between atoms: _578  and  _579
REMARK  235  A    between atoms: _582  and  _584
REMARK  236  A    between atoms: _584  and  _585
REMARK  237  A    between atoms: _588  and  _590
REMARK  238  A    between atoms: _590  and  _591
REMARK  239  A    between atoms: _590  and  _593
REMARK  240  A    between atoms: _593  and  _594
REMARK  241  A    between atoms: _597  and  _599
REMARK  242  A    between atoms: _599  and  _600
REMARK  243  A    between atoms: _599  and  _602
REMARK  244  A    between atoms: _602  and  _603
REMARK  245  A    between atoms: _606  and  _608
REMARK  246  A    between atoms: _608  and  _609
REMARK  247  A    between atoms: _608  and  _611
REMARK  248  A    between atoms: _611  and  _612
REMARK  249  A    between atoms: _615  and  _617
REMARK  250  A    between atoms: _617  and  _618
REMARK  251  A    between atoms: _617  and  _620
REMARK  252  A    between atoms: _620  and  _621
REMARK  253  A    between atoms: _621  and  _622
REMARK  254  A    between atoms: _622  and  _623
REMARK  255  A    between atoms: _623  and  _624
REMARK  256  A    between atoms: _628  and  _630
REMARK  257  A    between atoms: _630  and  _631
REMARK  258  A    between atoms: _630  and  _633
REMARK  259  A    between atoms: _633  and  _634
REMARK  260  A    between atoms: _639  and  _641
REMARK  261  A    between atoms: _641  and  _642
REMARK  262  A    between atoms: _641  and  _644
REMARK  263  A    between atoms: _644  and  _645
REMARK  264  A    between atoms: _645  and  _646
REMARK  265  A    between atoms: _646  and  _647
REMARK  266  A    between atoms: _647  and  _648
REMARK  267  A    between atoms: _652  and  _654
REMARK  268  A    between atoms: _654  and  _655
REMARK  269  A    between atoms: _654  and  _657
REMARK  270  A    between atoms: _657  and  _658
REMARK  271  A    between atoms: _668  and  _670
REMARK  272  A    between atoms: _670  and  _671
REMARK  273  A    between atoms: _674  and  _676
REMARK  274  A    between atoms: _676  and  _677
REMARK  275  A    between atoms: _679  and  _681
REMARK  276  A    between atoms: _681  and  _682
REMARK  277  A    between atoms: _685  and  _687
REMARK  278  A    between atoms: _687  and  _688
REMARK  279  A    between atoms: _691  and  _693
REMARK  280  A    between atoms: _693  and  _694
REMARK  281  A    between atoms: _693  and  _696
REMARK  282  A    between atoms: _696  and  _697
REMARK  283  A    between atoms: _697  and  _698
REMARK  284  A    between atoms: _701  and  _703
REMARK  285  A    between atoms: _703  and  _704
REMARK  286  A    between atoms: _703  and  _706
REMARK  287  A    between atoms: _706  and  _707
REMARK  288  A    between atoms: _712  and  _713
REMARK  289  A    between atoms: _715  and  _717
REMARK  290  A    between atoms: _717  and  _718
REMARK  291  A    between atoms: _717  and  _720
REMARK  292  A    between atoms: _720  and  _721
REMARK  293  A    between atoms: _726  and  _727
REMARK  294  A    between atoms: _729  and  _731
REMARK  295  A    between atoms: _731  and  _732
REMARK  296  A    between atoms: _731  and  _734
REMARK  297  A    between atoms: _734  and  _735
REMARK  298  A    between atoms: _735  and  _736
REMARK  299  A    between atoms: _736  and  _737
REMARK  300  A    between atoms: _746  and  _748
REMARK  301  A    between atoms: _748  and  _749
REMARK  302  A    between atoms: _752  and  _754
REMARK  303  A    between atoms: _754  and  _755
REMARK  304  A    between atoms: _754  and  _757
REMARK  305  A    between atoms: _757  and  _758
REMARK  306  A    between atoms: _763  and  _764
REMARK  307  A    between atoms: _766  and  _768
REMARK  308  A    between atoms: _768  and  _769
REMARK  309  A    between atoms: _768  and  _771
REMARK  310  A    between atoms: _771  and  _772
REMARK  311  A    between atoms: _775  and  _777
REMARK  312  A    between atoms: _777  and  _778
REMARK  313  A    between atoms: _777  and  _780
REMARK  314  A    between atoms: _780  and  _781
REMARK  315  A    between atoms: _784  and  _786
REMARK  316  A    between atoms: _786  and  _787
REMARK  317  A    between atoms: _786  and  _789
REMARK  318  A    between atoms: _789  and  _790
REMARK  319  A    between atoms: _791  and  _793
REMARK  320  A    between atoms: _793  and  _794
REMARK  321  A    between atoms: _793  and  _796
REMARK  322  A    between atoms: _799  and  _801
REMARK  323  A    between atoms: _801  and  _802
REMARK  324  A    between atoms: _801  and  _804
REMARK  325  A    between atoms: _804  and  _805
REMARK  326  A    between atoms: _805  and  _806
REMARK  327  A    between atoms: _809  and  _811
REMARK  328  A    between atoms: _811  and  _812
REMARK  329  A    between atoms: _811  and  _814
REMARK  330  A    between atoms: _814  and  _815
REMARK  331  A    between atoms: _825  and  _827
REMARK  332  A    between atoms: _827  and  _828
REMARK  333  A    between atoms: _827  and  _830
REMARK  334  A    between atoms: _830  and  _831
REMARK  335  A    between atoms: _834  and  _836
REMARK  336  A    between atoms: _836  and  _837
REMARK  337  A    between atoms: _836  and  _839
REMARK  338  A    between atoms: _839  and  _840
REMARK  339  A    between atoms: _840  and  _841
REMARK  340  A    between atoms: _841  and  _842
REMARK  341  A    between atoms: _851  and  _853
REMARK  342  A    between atoms: _853  and  _854
REMARK  343  A    between atoms: _853  and  _856
REMARK  344  A    between atoms: _856  and  _857
REMARK  345  A    between atoms: _862  and  _863
REMARK                            x       y       z     vdW  Elec       q    Type
REMARK                         _______ _______ _______ _____ _____    ______ ____
ROOT
ATOM      1  O   HOH     1      50.090  67.390  -5.156  0.00  0.00    +0.000 OA
ENDROOT
TORSDOF 0
REMARK  Name = ../refined-set-2016/1fzj/1fzj_pocket.pdb
REMARK  345 active torsions:
REMARK  status: ('A' for Active; 'I' for Inactive)
REMARK    1  A    between atoms: _1  and  _3
REMARK    2  A    between atoms: _3  and  _4
REMARK    3  A    between atoms: _3  and  _6
REMARK    4  A    between atoms: _6  and  _7
REMARK    5  A    between atoms: _10  and  _12
REMARK    6  A    between atoms: _12  and  _13
REMARK    7  A    between atoms: _12  and  _15
REMARK    8  A    between atoms: _15  and  _16
REMARK    9  A    between atoms: _16  and  _17
REMARK   10  A    between atoms: _17  and  _18
REMARK   11  A    between atoms: _27  and  _29
REMARK   12  A    between atoms: _29  and  _30
REMARK   13  A    between atoms: _29  and  _32
REMARK   14  A    between atoms: _32  and  _33
REMARK   15  A    between atoms: _38  and  _39
REMARK   16  A    between atoms: _41  and  _43
REMARK   17  A    between atoms: _43  and  _44
REMARK   18  A    between atoms: _43  and  _46
REMARK   19  A    between atoms: _46  and  _47
REMARK   20  A    between atoms: _53  and  _55
REMARK   21  A    between atoms: _55  and  _56
REMARK   22  A    between atoms: _55  and  _58
REMARK   23  A    between atoms: _61  and  _63
REMARK   24  A    between atoms: _63  and  _64
REMARK   25  A    between atoms: _63  and  _66
REMARK   26  A    between atoms: _66  and  _67
REMARK   27  A    between atoms: _70  and  _72
REMARK   28  A    between atoms: _72  and  _73
REMARK   29  A    between atoms: _72  and  _75
REMARK   30  A    between atoms: _75  and  _76
REMARK   31  A    between atoms: _81  and  _82
REMARK   32  A    between atoms: _84  and  _86
REMARK   33  A    between atoms: _86  and  _87
REMARK   34  A    between atoms: _86  and  _89
REMARK   35  A    between atoms: _89  and  _90
REMARK   36  A    between atoms: _90  and  _91
REMARK   37  A    between atoms: _93  and  _95
REMARK   38  A    between atoms: _95  and  _96
REMARK   39  A    between atoms: _95  and  _98
REMARK   40  A    between atoms: _98  and  _99
REMARK   41  A    between atoms: _99  and  _100
REMARK   42  A    between atoms: _103  and  _105
REMARK   43  A    between atoms: _105  and  _106
REMARK   44  A    between atoms: _105  and  _108
REMARK   45  A    between atoms: _111  and  _113
REMARK   46  A    between atoms: _113  and  _114
REMARK   47  A    between atoms: _113  and  _116
REMARK   48  A    between atoms: _119  and  _121
REMARK   49  A    between atoms: _121  and  _122
REMARK   50  A    between atoms: _121  and  _124
REMARK   51  A    between atoms: _124  and  _125
REMARK   52  A    between atoms: _131  and  _133
REMARK   53  A    between atoms: _133  and  _134
REMARK   54  A    between atoms: _133  and  _136
REMARK   55  A    between atoms: _139  and  _141
REMARK   56  A    between atoms: _141  and  _142
REMARK   57  A    between atoms: _141  and  _144
REMARK   58  A    between atoms: _144  and  _145
REMARK   59  A    between atoms: _150  and  _151
REMARK   60  A    between atoms: _153  and  _155
REMARK   61  A    between atoms: _155  and  _156
REMARK   62  A    between atoms: _155  and  _158
REMARK   63  A    between atoms: _158  and  _159
REMARK   64  A    between atoms: _159  and  _160
REMARK   65  A    between atoms: _162  and  _164
REMARK   66  A    between atoms: _164  and  _165
REMARK   67  A    between atoms: _164  and  _167
REMARK   68  A    between atoms: _167  and  _168
REMARK   69  A    between atoms: _168  and  _169
REMARK   70  A    between atoms: _172  and  _174
REMARK   71  A    between atoms: _174  and  _175
REMARK   72  A    between atoms: _174  and  _177
REMARK   73  A    between atoms: _177  and  _178
REMARK   74  A    between atoms: _178  and  _179
REMARK   75  A    between atoms: _182  and  _184
REMARK   76  A    between atoms: _184  and  _185
REMARK   77  A    between atoms: _184  and  _187
REMARK   78  A    between atoms: _187  and  _188
REMARK   79  A    between atoms: _193  and  _194
REMARK   80  A    between atoms: _196  and  _198
REMARK   81  A    between atoms: _198  and  _199
REMARK   82  A    between atoms: _198  and  _201
REMARK   83  A    between atoms: _201  and  _202
REMARK   84  A    between atoms: _212  and  _214
REMARK   85  A    between atoms: _214  and  _215
REMARK   86  A    between atoms: _214  and  _217
REMARK   87  A    between atoms: _217  and  _218
REMARK   88  A    between atoms: _218  and  _219
REMARK   89  A    between atoms: _222  and  _224
REMARK   90  A    between atoms: _224  and  _225
REMARK   91  A    between atoms: _224  and  _227
REMARK   92  A    between atoms: _227  and  _228
REMARK   93  A    between atoms: _228  and  _229
REMARK   94  A    between atoms: _229  and  _230
REMARK   95  A    between atoms: _239  and  _241
REMARK   96  A    between atoms: _241  and  _242
REMARK   97  A    between atoms: _241  and  _244
REMARK   98  A    between atoms: _244  and  _245
REMARK   99  A    between atoms: _245  and  _246
REMARK  100  A    between atoms: _249  and  _251
REMARK  101  A    between atoms: _251  and  _252
REMARK  102  A    between atoms: _251  and  _254
REMARK  103  A    between atoms: _254  and  _255
REMARK  104  A    between atoms: _258  and  _260
REMARK  105  A    between atoms: _260  and  _261
REMARK  106  A    between atoms: _260  and  _263
REMARK  107  A    between atoms: _263  and  _264
REMARK  108  A    between atoms: _264  and  _265
REMARK  109  A    between atoms: _270  and  _272
REMARK  110  A    between atoms: _272  and  _273
REMARK  111  A    between atoms: _272  and  _275
REMARK  112  A    between atoms: _275  and  _276
REMARK  113  A    between atoms: _276  and  _277
REMARK  114  A    between atoms: _277  and  _278
REMARK  115  A    between atoms: _278  and  _279
REMARK  116  A    between atoms: _283  and  _285
REMARK  117  A    between atoms: _285  and  _286
REMARK  118  A    between atoms: _289  and  _291
REMARK  119  A    between atoms: _291  and  _292
REMARK  120  A    between atoms: _294  and  _296
REMARK  121  A    between atoms: _296  and  _297
REMARK  122  A    between atoms: _296  and  _299
REMARK  123  A    between atoms: _299  and  _300
REMARK  124  A    between atoms: _305  and  _307
REMARK  125  A    between atoms: _307  and  _308
REMARK  126  A    between atoms: _307  and  _310
REMARK  127  A    between atoms: _310  and  _311
REMARK  128  A    between atoms: _311  and  _312
REMARK  129  A    between atoms: _315  and  _317
REMARK  130  A    between atoms: _317  and  _318
REMARK  131  A    between atoms: _317  and  _320
REMARK  132  A    between atoms: _320  and  _321
REMARK  133  A    between atoms: _323  and  _325
REMARK  134  A    between atoms: _325  and  _326
REMARK  135  A    between atoms: _325  and  _328
REMARK  136  A    between atoms: _328  and  _329
REMARK  137  A    between atoms: _335  and  _337
REMARK  138  A    between atoms: _337  and  _338
REMARK  139  A    between atoms: _337  and  _340
REMARK  140  A    between atoms: _343  and  _345
REMARK  141  A    between atoms: _345  and  _346
REMARK  142  A    between atoms: _345  and  _348
REMARK  143  A    between atoms: _348  and  _349
REMARK  144  A    between atoms: _352  and  _354
REMARK  145  A    between atoms: _354  and  _355
REMARK  146  A    between atoms: _354  and  _357
REMARK  147  A    between atoms: _357  and  _358
REMARK  148  A    between atoms: _361  and  _363
REMARK  149  A    between atoms: _363  and  _364
REMARK  150  A    between atoms: _363  and  _366
REMARK  151  A    between atoms: _366  and  _367
REMARK  152  A    between atoms: _370  and  _372
REMARK  153  A    between atoms: _372  and  _373
REMARK  154  A    between atoms: _372  and  _375
REMARK  155  A    between atoms: _375  and  _376
REMARK  156  A    between atoms: _379  and  _381
REMARK  157  A    between atoms: _381  and  _382
REMARK  158  A    between atoms: _381  and  _384
REMARK  159  A    between atoms: _384  and  _385
REMARK  160  A    between atoms: _390  and  _391
REMARK  161  A    between atoms: _393  and  _395
REMARK  162  A    between atoms: _395  and  _396
REMARK  163  A    between atoms: _395  and  _398
REMARK  164  A    between atoms: _398  and  _399
REMARK  165  A    between atoms: _404  and  _405
REMARK  166  A    between atoms: _407  and  _409
REMARK  167  A    between atoms: _409  and  _410
REMARK  168  A    between atoms: _409  and  _412
REMARK  169  A    between atoms: _412  and  _413
REMARK  170  A    between atoms: _416  and  _418
REMARK  171  A    between atoms: _418  and  _419
REMARK  172  A    between atoms: _418  and  _421
REMARK  173  A    between atoms: _421  and  _422
REMARK  174  A    between atoms: _422  and  _423
REMARK  175  A    between atoms: _428  and  _430
REMARK  176  A    between atoms: _430  and  _431
REMARK  177  A    between atoms: _430  and  _433
REMARK  178  A    between atoms: _436  and  _438
REMARK  179  A    between atoms: _438  and  _439
REMARK  180  A    between atoms: _438  and  _441
REMARK  181  A    between atoms: _441  and  _442
REMARK  182  A    between atoms: _445  and  _447
REMARK  183  A    between atoms: _447  and  _448
REMARK  184  A    between atoms: _447  and  _450
REMARK  185  A    between atoms: _450  and  _451
REMARK  186  A    between atoms: _453  and  _455
REMARK  187  A    between atoms: _455  and  _456
REMARK  188  A    between atoms: _458  and  _460
REMARK  189  A    between atoms: _460  and  _461
REMARK  190  A    between atoms: _460  and  _463
REMARK  191  A    between atoms: _463  and  _464
REMARK  192  A    between atoms: _464  and  _790
REMARK  193  A    between atoms: _465  and  _467
REMARK  194  A    between atoms: _467  and  _468
REMARK  195  A    between atoms: _467  and  _470
REMARK  196  A    between atoms: _470  and  _471
REMARK  197  A    between atoms: _476  and  _477
REMARK  198  A    between atoms: _479  and  _481
REMARK  199  A    between atoms: _481  and  _482
REMARK  200  A    between atoms: _481  and  _484
REMARK  201  A    between atoms: _484  and  _485
REMARK  202  A    between atoms: _485  and  _486
REMARK  203  A    between atoms: _491  and  _493
REMARK  204  A    between atoms: _493  and  _494
REMARK  205  A    between atoms: _493  and  _496
REMARK  206  A    between atoms: _496  and  _497
REMARK  207  A    between atoms: _497  and  _498
REMARK  208  A    between atoms: _503  and  _505
REMARK  209  A    between atoms: _505  and  _506
REMARK  210  A    between atoms: _505  and  _508
REMARK  211  A    between atoms: _508  and  _509
REMARK  212  A    between atoms: _514  and  _515
REMARK  213  A    between atoms: _517  and  _519
REMARK  214  A    between atoms: _519  and  _520
REMARK  215  A    between atoms: _523  and  _525
REMARK  216  A    between atoms: _525  and  _526
REMARK  217  A    between atoms: _525  and  _528
REMARK  218  A    between atoms: _528  and  _529
REMARK  219  A    between atoms: _534  and  _535
REMARK  220  A    between atoms: _537  and  _539
REMARK  221  A    between atoms: _539  and  _540
REMARK  222  A    between atoms: _539  and  _542
REMARK  223  A    between atoms: _542  and  _543
REMARK  224  A    between atoms: _548  and  _549
REMARK  225  A    between atoms: _551  and  _553
REMARK  226  A    between atoms: _553  and  _554
REMARK  227  A    between atoms: _553  and  _556
REMARK  228  A    between atoms: _556  and  _557
REMARK  229  A    between atoms: _560  and  _562
REMARK  230  A    between atoms: _562  and  _563
REMARK  231  A    between atoms: _562  and  _565
REMARK  232  A    between atoms: _565  and  _566
REMARK  233  A    between atoms: _576  and  _578
REMARK  234  A    between atoms: _578  and  _579
REMARK  235  A    between atoms: _582  and  _584
REMARK  236  A    between atoms: _584  and  _585
REMARK  237  A    between atoms: _588  and  _590
REMARK  238  A    between atoms: _590  and  _591
REMARK  239  A    between atoms: _590  and  _593
REMARK  240  A    between atoms: _593  and  _594
REMARK  241  A    between atoms: _597  and  _599
REMARK  242  A    between atoms: _599  and  _600
REMARK  243  A    between atoms: _599  and  _602
REMARK  244  A    between atoms: _602  and  _603
REMARK  245  A    between atoms: _606  and  _608
REMARK  246  A    between atoms: _608  and  _609
REMARK  247  A    between atoms: _608  and  _611
REMARK  248  A    between atoms: _611  and  _612
REMARK  249  A    between atoms: _615  and  _617
REMARK  250  A    between atoms: _617  and  _618
REMARK  251  A    between atoms: _617  and  _620
REMARK  252  A    between atoms: _620  and  _621
REMARK  253  A    between atoms: _621  and  _622
REMARK  254  A    between atoms: _622  and  _623
REMARK  255  A    between atoms: _623  and  _624
REMARK  256  A    between atoms: _628  and  _630
REMARK  257  A    between atoms: _630  and  _631
REMARK  258  A    between atoms: _630  and  _633
REMARK  259  A    between atoms: _633  and  _634
REMARK  260  A    between atoms: _639  and  _641
REMARK  261  A    between atoms: _641  and  _642
REMARK  262  A    between atoms: _641  and  _644
REMARK  263  A    between atoms: _644  and  _645
REMARK  264  A    between atoms: _645  and  _646
REMARK  265  A    between atoms: _646  and  _647
REMARK  266  A    between atoms: _647  and  _648
REMARK  267  A    between atoms: _652  and  _654
REMARK  268  A    between atoms: _654  and  _655
REMARK  269  A    between atoms: _654  and  _657
REMARK  270  A    between atoms: _657  and  _658
REMARK  271  A    between atoms: _668  and  _670
REMARK  272  A    between atoms: _670  and  _671
REMARK  273  A    between atoms: _674  and  _676
REMARK  274  A    between atoms: _676  and  _677
REMARK  275  A    between atoms: _679  and  _681
REMARK  276  A    between atoms: _681  and  _682
REMARK  277  A    between atoms: _685  and  _687
REMARK  278  A    between atoms: _687  and  _688
REMARK  279  A    between atoms: _691  and  _693
REMARK  280  A    between atoms: _693  and  _694
REMARK  281  A    between atoms: _693  and  _696
REMARK  282  A    between atoms: _696  and  _697
REMARK  283  A    between atoms: _697  and  _698
REMARK  284  A    between atoms: _701  and  _703
REMARK  285  A    between atoms: _703  and  _704
REMARK  286  A    between atoms: _703  and  _706
REMARK  287  A    between atoms: _706  and  _707
REMARK  288  A    between atoms: _712  and  _713
REMARK  289  A    between atoms: _715  and  _717
REMARK  290  A    between atoms: _717  and  _718
REMARK  291  A    between atoms: _717  and  _720
REMARK  292  A    between atoms: _720  and  _721
REMARK  293  A    between atoms: _726  and  _727
REMARK  294  A    between atoms: _729  and  _731
REMARK  295  A    between atoms: _731  and  _732
REMARK  296  A    between atoms: _731  and  _734
REMARK  297  A    between atoms: _734  and  _735
REMARK  298  A    between atoms: _735  and  _736
REMARK  299  A    between atoms: _736  and  _737
REMARK  300  A    between atoms: _746  and  _748
REMARK  301  A    between atoms: _748  and  _749
REMARK  302  A    between atoms: _752  and  _754
REMARK  303  A    between atoms: _754  and  _755
REMARK  304  A    between atoms: _754  and  _757
REMARK  305  A    between atoms: _757  and  _758
REMARK  306  A    between atoms: _763  and  _764
REMARK  307  A    between atoms: _766  and  _768
REMARK  308  A    between atoms: _768  and  _769
REMARK  309  A    between atoms: _768  and  _771
REMARK  310  A    between atoms: _771  and  _772
REMARK  311  A    between atoms: _775  and  _777
REMARK  312  A    between atoms: _777  and  _778
REMARK  313  A    between atoms: _777  and  _780
REMARK  314  A    between atoms: _780  and  _781
REMARK  315  A    between atoms: _784  and  _786
REMARK  316  A    between atoms: _786  and  _787
REMARK  317  A    between atoms: _786  and  _789
REMARK  318  A    between atoms: _789  and  _790
REMARK  319  A    between atoms: _791  and  _793
REMARK  320  A    between atoms: _793  and  _794
REMARK  321  A    between atoms: _793  and  _796
REMARK  322  A    between atoms: _799  and  _801
REMARK  323  A    between atoms: _801  and  _802
REMARK  324  A    between atoms: _801  and  _804
REMARK  325  A    between atoms: _804  and  _805
REMARK  326  A    between atoms: _805  and  _806
REMARK  327  A    between atoms: _809  and  _811
REMARK  328  A    between atoms: _811  and  _812
REMARK  329  A    between atoms: _811  and  _814
REMARK  330  A    between atoms: _814  and  _815
REMARK  331  A    between atoms: _825  and  _827
REMARK  332  A    between atoms: _827  and  _828
REMARK  333  A    between atoms: _827  and  _830
REMARK  334  A    between atoms: _830  and  _831
REMARK  335  A    between atoms: _834  and  _836
REMARK  336  A    between atoms: _836  and  _837
REMARK  337  A    between atoms: _836  and  _839
REMARK  338  A    between atoms: _839  and  _840
REMARK  339  A    between atoms: _840  and  _841
REMARK  340  A    between atoms: _841  and  _842
REMARK  341  A    between atoms: _851  and  _853
REMARK  342  A    between atoms: _853  and  _854
REMARK  343  A    between atoms: _853  and  _856
REMARK  344  A    between atoms: _856  and  _857
REMARK  345  A    between atoms: _862  and  _863
REMARK                            x       y       z     vdW  Elec       q    Type
REMARK                         _______ _______ _______ _____ _____    ______ ____
ROOT
ATOM      1  O   HOH     1      48.816  54.560  -2.122  0.00  0.00    +0.000 OA
ENDROOT
TORSDOF 0
REMARK  Name = ../refined-set-2016/1fzj/1fzj_pocket.pdb
REMARK  345 active torsions:
REMARK  status: ('A' for Active; 'I' for Inactive)
REMARK    1  A    between atoms: _1  and  _3
REMARK    2  A    between atoms: _3  and  _4
REMARK    3  A    between atoms: _3  and  _6
REMARK    4  A    between atoms: _6  and  _7
REMARK    5  A    between atoms: _10  and  _12
REMARK    6  A    between atoms: _12  and  _13
REMARK    7  A    between atoms: _12  and  _15
REMARK    8  A    between atoms: _15  and  _16
REMARK    9  A    between atoms: _16  and  _17
REMARK   10  A    between atoms: _17  and  _18
REMARK   11  A    between atoms: _27  and  _29
REMARK   12  A    between atoms: _29  and  _30
REMARK   13  A    between atoms: _29  and  _32
REMARK   14  A    between atoms: _32  and  _33
REMARK   15  A    between atoms: _38  and  _39
REMARK   16  A    between atoms: _41  and  _43
REMARK   17  A    between atoms: _43  and  _44
REMARK   18  A    between atoms: _43  and  _46
REMARK   19  A    between atoms: _46  and  _47
REMARK   20  A    between atoms: _53  and  _55
REMARK   21  A    between atoms: _55  and  _56
REMARK   22  A    between atoms: _55  and  _58
REMARK   23  A    between atoms: _61  and  _63
REMARK   24  A    between atoms: _63  and  _64
REMARK   25  A    between atoms: _63  and  _66
REMARK   26  A    between atoms: _66  and  _67
REMARK   27  A    between atoms: _70  and  _72
REMARK   28  A    between atoms: _72  and  _73
REMARK   29  A    between atoms: _72  and  _75
REMARK   30  A    between atoms: _75  and  _76
REMARK   31  A    between atoms: _81  and  _82
REMARK   32  A    between atoms: _84  and  _86
REMARK   33  A    between atoms: _86  and  _87
REMARK   34  A    between atoms: _86  and  _89
REMARK   35  A    between atoms: _89  and  _90
REMARK   36  A    between atoms: _90  and  _91
REMARK   37  A    between atoms: _93  and  _95
REMARK   38  A    between atoms: _95  and  _96
REMARK   39  A    between atoms: _95  and  _98
REMARK   40  A    between atoms: _98  and  _99
REMARK   41  A    between atoms: _99  and  _100
REMARK   42  A    between atoms: _103  and  _105
REMARK   43  A    between atoms: _105  and  _106
REMARK   44  A    between atoms: _105  and  _108
REMARK   45  A    between atoms: _111  and  _113
REMARK   46  A    between atoms: _113  and  _114
REMARK   47  A    between atoms: _113  and  _116
REMARK   48  A    between atoms: _119  and  _121
REMARK   49  A    between atoms: _121  and  _122
REMARK   50  A    between atoms: _121  and  _124
REMARK   51  A    between atoms: _124  and  _125
REMARK   52  A    between atoms: _131  and  _133
REMARK   53  A    between atoms: _133  and  _134
REMARK   54  A    between atoms: _133  and  _136
REMARK   55  A    between atoms: _139  and  _141
REMARK   56  A    between atoms: _141  and  _142
REMARK   57  A    between atoms: _141  and  _144
REMARK   58  A    between atoms: _144  and  _145
REMARK   59  A    between atoms: _150  and  _151
REMARK   60  A    between atoms: _153  and  _155
REMARK   61  A    between atoms: _155  and  _156
REMARK   62  A    between atoms: _155  and  _158
REMARK   63  A    between atoms: _158  and  _159
REMARK   64  A    between atoms: _159  and  _160
REMARK   65  A    between atoms: _162  and  _164
REMARK   66  A    between atoms: _164  and  _165
REMARK   67  A    between atoms: _164  and  _167
REMARK   68  A    between atoms: _167  and  _168
REMARK   69  A    between atoms: _168  and  _169
REMARK   70  A    between atoms: _172  and  _174
REMARK   71  A    between atoms: _174  and  _175
REMARK   72  A    between atoms: _174  and  _177
REMARK   73  A    between atoms: _177  and  _178
REMARK   74  A    between atoms: _178  and  _179
REMARK   75  A    between atoms: _182  and  _184
REMARK   76  A    between atoms: _184  and  _185
REMARK   77  A    between atoms: _184  and  _187
REMARK   78  A    between atoms: _187  and  _188
REMARK   79  A    between atoms: _193  and  _194
REMARK   80  A    between atoms: _196  and  _198
REMARK   81  A    between atoms: _198  and  _199
REMARK   82  A    between atoms: _198  and  _201
REMARK   83  A    between atoms: _201  and  _202
REMARK   84  A    between atoms: _212  and  _214
REMARK   85  A    between atoms: _214  and  _215
REMARK   86  A    between atoms: _214  and  _217
REMARK   87  A    between atoms: _217  and  _218
REMARK   88  A    between atoms: _218  and  _219
REMARK   89  A    between atoms: _222  and  _224
REMARK   90  A    between atoms: _224  and  _225
REMARK   91  A    between atoms: _224  and  _227
REMARK   92  A    between atoms: _227  and  _228
REMARK   93  A    between atoms: _228  and  _229
REMARK   94  A    between atoms: _229  and  _230
REMARK   95  A    between atoms: _239  and  _241
REMARK   96  A    between atoms: _241  and  _242
REMARK   97  A    between atoms: _241  and  _244
REMARK   98  A    between atoms: _244  and  _245
REMARK   99  A    between atoms: _245  and  _246
REMARK  100  A    between atoms: _249  and  _251
REMARK  101  A    between atoms: _251  and  _252
REMARK  102  A    between atoms: _251  and  _254
REMARK  103  A    between atoms: _254  and  _255
REMARK  104  A    between atoms: _258  and  _260
REMARK  105  A    between atoms: _260  and  _261
REMARK  106  A    between atoms: _260  and  _263
REMARK  107  A    between atoms: _263  and  _264
REMARK  108  A    between atoms: _264  and  _265
REMARK  109  A    between atoms: _270  and  _272
REMARK  110  A    between atoms: _272  and  _273
REMARK  111  A    between atoms: _272  and  _275
REMARK  112  A    between atoms: _275  and  _276
REMARK  113  A    between atoms: _276  and  _277
REMARK  114  A    between atoms: _277  and  _278
REMARK  115  A    between atoms: _278  and  _279
REMARK  116  A    between atoms: _283  and  _285
REMARK  117  A    between atoms: _285  and  _286
REMARK  118  A    between atoms: _289  and  _291
REMARK  119  A    between atoms: _291  and  _292
REMARK  120  A    between atoms: _294  and  _296
REMARK  121  A    between atoms: _296  and  _297
REMARK  122  A    between atoms: _296  and  _299
REMARK  123  A    between atoms: _299  and  _300
REMARK  124  A    between atoms: _305  and  _307
REMARK  125  A    between atoms: _307  and  _308
REMARK  126  A    between atoms: _307  and  _310
REMARK  127  A    between atoms: _310  and  _311
REMARK  128  A    between atoms: _311  and  _312
REMARK  129  A    between atoms: _315  and  _317
REMARK  130  A    between atoms: _317  and  _318
REMARK  131  A    between atoms: _317  and  _320
REMARK  132  A    between atoms: _320  and  _321
REMARK  133  A    between atoms: _323  and  _325
REMARK  134  A    between atoms: _325  and  _326
REMARK  135  A    between atoms: _325  and  _328
REMARK  136  A    between atoms: _328  and  _329
REMARK  137  A    between atoms: _335  and  _337
REMARK  138  A    between atoms: _337  and  _338
REMARK  139  A    between atoms: _337  and  _340
REMARK  140  A    between atoms: _343  and  _345
REMARK  141  A    between atoms: _345  and  _346
REMARK  142  A    between atoms: _345  and  _348
REMARK  143  A    between atoms: _348  and  _349
REMARK  144  A    between atoms: _352  and  _354
REMARK  145  A    between atoms: _354  and  _355
REMARK  146  A    between atoms: _354  and  _357
REMARK  147  A    between atoms: _357  and  _358
REMARK  148  A    between atoms: _361  and  _363
REMARK  149  A    between atoms: _363  and  _364
REMARK  150  A    between atoms: _363  and  _366
REMARK  151  A    between atoms: _366  and  _367
REMARK  152  A    between atoms: _370  and  _372
REMARK  153  A    between atoms: _372  and  _373
REMARK  154  A    between atoms: _372  and  _375
REMARK  155  A    between atoms: _375  and  _376
REMARK  156  A    between atoms: _379  and  _381
REMARK  157  A    between atoms: _381  and  _382
REMARK  158  A    between atoms: _381  and  _384
REMARK  159  A    between atoms: _384  and  _385
REMARK  160  A    between atoms: _390  and  _391
REMARK  161  A    between atoms: _393  and  _395
REMARK  162  A    between atoms: _395  and  _396
REMARK  163  A    between atoms: _395  and  _398
REMARK  164  A    between atoms: _398  and  _399
REMARK  165  A    between atoms: _404  and  _405
REMARK  166  A    between atoms: _407  and  _409
REMARK  167  A    between atoms: _409  and  _410
REMARK  168  A    between atoms: _409  and  _412
REMARK  169  A    between atoms: _412  and  _413
REMARK  170  A    between atoms: _416  and  _418
REMARK  171  A    between atoms: _418  and  _419
REMARK  172  A    between atoms: _418  and  _421
REMARK  173  A    between atoms: _421  and  _422
REMARK  174  A    between atoms: _422  and  _423
REMARK  175  A    between atoms: _428  and  _430
REMARK  176  A    between atoms: _430  and  _431
REMARK  177  A    between atoms: _430  and  _433
REMARK  178  A    between atoms: _436  and  _438
REMARK  179  A    between atoms: _438  and  _439
REMARK  180  A    between atoms: _438  and  _441
REMARK  181  A    between atoms: _441  and  _442
REMARK  182  A    between atoms: _445  and  _447
REMARK  183  A    between atoms: _447  and  _448
REMARK  184  A    between atoms: _447  and  _450
REMARK  185  A    between atoms: _450  and  _451
REMARK  186  A    between atoms: _453  and  _455
REMARK  187  A    between atoms: _455  and  _456
REMARK  188  A    between atoms: _458  and  _460
REMARK  189  A    between atoms: _460  and  _461
REMARK  190  A    between atoms: _460  and  _463
REMARK  191  A    between atoms: _463  and  _464
REMARK  192  A    between atoms: _464  and  _790
REMARK  193  A    between atoms: _465  and  _467
REMARK  194  A    between atoms: _467  and  _468
REMARK  195  A    between atoms: _467  and  _470
REMARK  196  A    between atoms: _470  and  _471
REMARK  197  A    between atoms: _476  and  _477
REMARK  198  A    between atoms: _479  and  _481
REMARK  199  A    between atoms: _481  and  _482
REMARK  200  A    between atoms: _481  and  _484
REMARK  201  A    between atoms: _484  and  _485
REMARK  202  A    between atoms: _485  and  _486
REMARK  203  A    between atoms: _491  and  _493
REMARK  204  A    between atoms: _493  and  _494
REMARK  205  A    between atoms: _493  and  _496
REMARK  206  A    between atoms: _496  and  _497
REMARK  207  A    between atoms: _497  and  _498
REMARK  208  A    between atoms: _503  and  _505
REMARK  209  A    between atoms: _505  and  _506
REMARK  210  A    between atoms: _505  and  _508
REMARK  211  A    between atoms: _508  and  _509
REMARK  212  A    between atoms: _514  and  _515
REMARK  213  A    between atoms: _517  and  _519
REMARK  214  A    between atoms: _519  and  _520
REMARK  215  A    between atoms: _523  and  _525
REMARK  216  A    between atoms: _525  and  _526
REMARK  217  A    between atoms: _525  and  _528
REMARK  218  A    between atoms: _528  and  _529
REMARK  219  A    between atoms: _534  and  _535
REMARK  220  A    between atoms: _537  and  _539
REMARK  221  A    between atoms: _539  and  _540
REMARK  222  A    between atoms: _539  and  _542
REMARK  223  A    between atoms: _542  and  _543
REMARK  224  A    between atoms: _548  and  _549
REMARK  225  A    between atoms: _551  and  _553
REMARK  226  A    between atoms: _553  and  _554
REMARK  227  A    between atoms: _553  and  _556
REMARK  228  A    between atoms: _556  and  _557
REMARK  229  A    between atoms: _560  and  _562
REMARK  230  A    between atoms: _562  and  _563
REMARK  231  A    between atoms: _562  and  _565
REMARK  232  A    between atoms: _565  and  _566
REMARK  233  A    between atoms: _576  and  _578
REMARK  234  A    between atoms: _578  and  _579
REMARK  235  A    between atoms: _582  and  _584
REMARK  236  A    between atoms: _584  and  _585
REMARK  237  A    between atoms: _588  and  _590
REMARK  238  A    between atoms: _590  and  _591
REMARK  239  A    between atoms: _590  and  _593
REMARK  240  A    between atoms: _593  and  _594
REMARK  241  A    between atoms: _597  and  _599
REMARK  242  A    between atoms: _599  and  _600
REMARK  243  A    between atoms: _599  and  _602
REMARK  244  A    between atoms: _602  and  _603
REMARK  245  A    between atoms: _606  and  _608
REMARK  246  A    between atoms: _608  and  _609
REMARK  247  A    between atoms: _608  and  _611
REMARK  248  A    between atoms: _611  and  _612
REMARK  249  A    between atoms: _615  and  _617
REMARK  250  A    between atoms: _617  and  _618
REMARK  251  A    between atoms: _617  and  _620
REMARK  252  A    between atoms: _620  and  _621
REMARK  253  A    between atoms: _621  and  _622
REMARK  254  A    between atoms: _622  and  _623
REMARK  255  A    between atoms: _623  and  _624
REMARK  256  A    between atoms: _628  and  _630
REMARK  257  A    between atoms: _630  and  _631
REMARK  258  A    between atoms: _630  and  _633
REMARK  259  A    between atoms: _633  and  _634
REMARK  260  A    between atoms: _639  and  _641
REMARK  261  A    between atoms: _641  and  _642
REMARK  262  A    between atoms: _641  and  _644
REMARK  263  A    between atoms: _644  and  _645
REMARK  264  A    between atoms: _645  and  _646
REMARK  265  A    between atoms: _646  and  _647
REMARK  266  A    between atoms: _647  and  _648
REMARK  267  A    between atoms: _652  and  _654
REMARK  268  A    between atoms: _654  and  _655
REMARK  269  A    between atoms: _654  and  _657
REMARK  270  A    between atoms: _657  and  _658
REMARK  271  A    between atoms: _668  and  _670
REMARK  272  A    between atoms: _670  and  _671
REMARK  273  A    between atoms: _674  and  _676
REMARK  274  A    between atoms: _676  and  _677
REMARK  275  A    between atoms: _679  and  _681
REMARK  276  A    between atoms: _681  and  _682
REMARK  277  A    between atoms: _685  and  _687
REMARK  278  A    between atoms: _687  and  _688
REMARK  279  A    between atoms: _691  and  _693
REMARK  280  A    between atoms: _693  and  _694
REMARK  281  A    between atoms: _693  and  _696
REMARK  282  A    between atoms: _696  and  _697
REMARK  283  A    between atoms: _697  and  _698
REMARK  284  A    between atoms: _701  and  _703
REMARK  285  A    between atoms: _703  and  _704
REMARK  286  A    between atoms: _703  and  _706
REMARK  287  A    between atoms: _706  and  _707
REMARK  288  A    between atoms: _712  and  _713
REMARK  289  A    between atoms: _715  and  _717
REMARK  290  A    between atoms: _717  and  _718
REMARK  291  A    between atoms: _717  and  _720
REMARK  292  A    between atoms: _720  and  _721
REMARK  293  A    between atoms: _726  and  _727
REMARK  294  A    between atoms: _729  and  _731
REMARK  295  A    between atoms: _731  and  _732
REMARK  296  A    between atoms: _731  and  _734
REMARK  297  A    between atoms: _734  and  _735
REMARK  298  A    between atoms: _735  and  _736
REMARK  299  A    between atoms: _736  and  _737
REMARK  300  A    between atoms: _746  and  _748
REMARK  301  A    between atoms: _748  and  _749
REMARK  302  A    between atoms: _752  and  _754
REMARK  303  A    between atoms: _754  and  _755
REMARK  304  A    between atoms: _754  and  _757
REMARK  305  A    between atoms: _757  and  _758
REMARK  306  A    between atoms: _763  and  _764
REMARK  307  A    between atoms: _766  and  _768
REMARK  308  A    between atoms: _768  and  _769
REMARK  309  A    between atoms: _768  and  _771
REMARK  310  A    between atoms: _771  and  _772
REMARK  311  A    between atoms: _775  and  _777
REMARK  312  A    between atoms: _777  and  _778
REMARK  313  A    between atoms: _777  and  _780
REMARK  314  A    between atoms: _780  and  _781
REMARK  315  A    between atoms: _784  and  _786
REMARK  316  A    between atoms: _786  and  _787
REMARK  317  A    between atoms: _786  and  _789
REMARK  318  A    between atoms: _789  and  _790
REMARK  319  A    between atoms: _791  and  _793
REMARK  320  A    between atoms: _793  and  _794
REMARK  321  A    between atoms: _793  and  _796
REMARK  322  A    between atoms: _799  and  _801
REMARK  323  A    between atoms: _801  and  _802
REMARK  324  A    between atoms: _801  and  _804
REMARK  325  A    between atoms: _804  and  _805
REMARK  326  A    between atoms: _805  and  _806
REMARK  327  A    between atoms: _809  and  _811
REMARK  328  A    between atoms: _811  and  _812
REMARK  329  A    between atoms: _811  and  _814
REMARK  330  A    between atoms: _814  and  _815
REMARK  331  A    between atoms: _825  and  _827
REMARK  332  A    between atoms: _827  and  _828
REMARK  333  A    between atoms: _827  and  _830
REMARK  334  A    between atoms: _830  and  _831
REMARK  335  A    between atoms: _834  and  _836
REMARK  336  A    between atoms: _836  and  _837
REMARK  337  A    between atoms: _836  and  _839
REMARK  338  A    between atoms: _839  and  _840
REMARK  339  A    between atoms: _840  and  _841
REMARK  340  A    between atoms: _841  and  _842
REMARK  341  A    between atoms: _851  and  _853
REMARK  342  A    between atoms: _853  and  _854
REMARK  343  A    between atoms: _853  and  _856
REMARK  344  A    between atoms: _856  and  _857
REMARK  345  A    between atoms: _862  and  _863
REMARK                            x       y       z     vdW  Elec       q    Type
REMARK                         _______ _______ _______ _____ _____    ______ ____
ROOT
ATOM      1  O   HOH     1      38.259  60.056  -4.784  0.00  0.00    +0.000 OA
ENDROOT
TORSDOF 0
REMARK  Name = ../refined-set-2016/1fzj/1fzj_pocket.pdb
REMARK  345 active torsions:
REMARK  status: ('A' for Active; 'I' for Inactive)
REMARK    1  A    between atoms: _1  and  _3
REMARK    2  A    between atoms: _3  and  _4
REMARK    3  A    between atoms: _3  and  _6
REMARK    4  A    between atoms: _6  and  _7
REMARK    5  A    between atoms: _10  and  _12
REMARK    6  A    between atoms: _12  and  _13
REMARK    7  A    between atoms: _12  and  _15
REMARK    8  A    between atoms: _15  and  _16
REMARK    9  A    between atoms: _16  and  _17
REMARK   10  A    between atoms: _17  and  _18
REMARK   11  A    between atoms: _27  and  _29
REMARK   12  A    between atoms: _29  and  _30
REMARK   13  A    between atoms: _29  and  _32
REMARK   14  A    between atoms: _32  and  _33
REMARK   15  A    between atoms: _38  and  _39
REMARK   16  A    between atoms: _41  and  _43
REMARK   17  A    between atoms: _43  and  _44
REMARK   18  A    between atoms: _43  and  _46
REMARK   19  A    between atoms: _46  and  _47
REMARK   20  A    between atoms: _53  and  _55
REMARK   21  A    between atoms: _55  and  _56
REMARK   22  A    between atoms: _55  and  _58
REMARK   23  A    between atoms: _61  and  _63
REMARK   24  A    between atoms: _63  and  _64
REMARK   25  A    between atoms: _63  and  _66
REMARK   26  A    between atoms: _66  and  _67
REMARK   27  A    between atoms: _70  and  _72
REMARK   28  A    between atoms: _72  and  _73
REMARK   29  A    between atoms: _72  and  _75
REMARK   30  A    between atoms: _75  and  _76
REMARK   31  A    between atoms: _81  and  _82
REMARK   32  A    between atoms: _84  and  _86
REMARK   33  A    between atoms: _86  and  _87
REMARK   34  A    between atoms: _86  and  _89
REMARK   35  A    between atoms: _89  and  _90
REMARK   36  A    between atoms: _90  and  _91
REMARK   37  A    between atoms: _93  and  _95
REMARK   38  A    between atoms: _95  and  _96
REMARK   39  A    between atoms: _95  and  _98
REMARK   40  A    between atoms: _98  and  _99
REMARK   41  A    between atoms: _99  and  _100
REMARK   42  A    between atoms: _103  and  _105
REMARK   43  A    between atoms: _105  and  _106
REMARK   44  A    between atoms: _105  and  _108
REMARK   45  A    between atoms: _111  and  _113
REMARK   46  A    between atoms: _113  and  _114
REMARK   47  A    between atoms: _113  and  _116
REMARK   48  A    between atoms: _119  and  _121
REMARK   49  A    between atoms: _121  and  _122
REMARK   50  A    between atoms: _121  and  _124
REMARK   51  A    between atoms: _124  and  _125
REMARK   52  A    between atoms: _131  and  _133
REMARK   53  A    between atoms: _133  and  _134
REMARK   54  A    between atoms: _133  and  _136
REMARK   55  A    between atoms: _139  and  _141
REMARK   56  A    between atoms: _141  and  _142
REMARK   57  A    between atoms: _141  and  _144
REMARK   58  A    between atoms: _144  and  _145
REMARK   59  A    between atoms: _150  and  _151
REMARK   60  A    between atoms: _153  and  _155
REMARK   61  A    between atoms: _155  and  _156
REMARK   62  A    between atoms: _155  and  _158
REMARK   63  A    between atoms: _158  and  _159
REMARK   64  A    between atoms: _159  and  _160
REMARK   65  A    between atoms: _162  and  _164
REMARK   66  A    between atoms: _164  and  _165
REMARK   67  A    between atoms: _164  and  _167
REMARK   68  A    between atoms: _167  and  _168
REMARK   69  A    between atoms: _168  and  _169
REMARK   70  A    between atoms: _172  and  _174
REMARK   71  A    between atoms: _174  and  _175
REMARK   72  A    between atoms: _174  and  _177
REMARK   73  A    between atoms: _177  and  _178
REMARK   74  A    between atoms: _178  and  _179
REMARK   75  A    between atoms: _182  and  _184
REMARK   76  A    between atoms: _184  and  _185
REMARK   77  A    between atoms: _184  and  _187
REMARK   78  A    between atoms: _187  and  _188
REMARK   79  A    between atoms: _193  and  _194
REMARK   80  A    between atoms: _196  and  _198
REMARK   81  A    between atoms: _198  and  _199
REMARK   82  A    between atoms: _198  and  _201
REMARK   83  A    between atoms: _201  and  _202
REMARK   84  A    between atoms: _212  and  _214
REMARK   85  A    between atoms: _214  and  _215
REMARK   86  A    between atoms: _214  and  _217
REMARK   87  A    between atoms: _217  and  _218
REMARK   88  A    between atoms: _218  and  _219
REMARK   89  A    between atoms: _222  and  _224
REMARK   90  A    between atoms: _224  and  _225
REMARK   91  A    between atoms: _224  and  _227
REMARK   92  A    between atoms: _227  and  _228
REMARK   93  A    between atoms: _228  and  _229
REMARK   94  A    between atoms: _229  and  _230
REMARK   95  A    between atoms: _239  and  _241
REMARK   96  A    between atoms: _241  and  _242
REMARK   97  A    between atoms: _241  and  _244
REMARK   98  A    between atoms: _244  and  _245
REMARK   99  A    between atoms: _245  and  _246
REMARK  100  A    between atoms: _249  and  _251
REMARK  101  A    between atoms: _251  and  _252
REMARK  102  A    between atoms: _251  and  _254
REMARK  103  A    between atoms: _254  and  _255
REMARK  104  A    between atoms: _258  and  _260
REMARK  105  A    between atoms: _260  and  _261
REMARK  106  A    between atoms: _260  and  _263
REMARK  107  A    between atoms: _263  and  _264
REMARK  108  A    between atoms: _264  and  _265
REMARK  109  A    between atoms: _270  and  _272
REMARK  110  A    between atoms: _272  and  _273
REMARK  111  A    between atoms: _272  and  _275
REMARK  112  A    between atoms: _275  and  _276
REMARK  113  A    between atoms: _276  and  _277
REMARK  114  A    between atoms: _277  and  _278
REMARK  115  A    between atoms: _278  and  _279
REMARK  116  A    between atoms: _283  and  _285
REMARK  117  A    between atoms: _285  and  _286
REMARK  118  A    between atoms: _289  and  _291
REMARK  119  A    between atoms: _291  and  _292
REMARK  120  A    between atoms: _294  and  _296
REMARK  121  A    between atoms: _296  and  _297
REMARK  122  A    between atoms: _296  and  _299
REMARK  123  A    between atoms: _299  and  _300
REMARK  124  A    between atoms: _305  and  _307
REMARK  125  A    between atoms: _307  and  _308
REMARK  126  A    between atoms: _307  and  _310
REMARK  127  A    between atoms: _310  and  _311
REMARK  128  A    between atoms: _311  and  _312
REMARK  129  A    between atoms: _315  and  _317
REMARK  130  A    between atoms: _317  and  _318
REMARK  131  A    between atoms: _317  and  _320
REMARK  132  A    between atoms: _320  and  _321
REMARK  133  A    between atoms: _323  and  _325
REMARK  134  A    between atoms: _325  and  _326
REMARK  135  A    between atoms: _325  and  _328
REMARK  136  A    between atoms: _328  and  _329
REMARK  137  A    between atoms: _335  and  _337
REMARK  138  A    between atoms: _337  and  _338
REMARK  139  A    between atoms: _337  and  _340
REMARK  140  A    between atoms: _343  and  _345
REMARK  141  A    between atoms: _345  and  _346
REMARK  142  A    between atoms: _345  and  _348
REMARK  143  A    between atoms: _348  and  _349
REMARK  144  A    between atoms: _352  and  _354
REMARK  145  A    between atoms: _354  and  _355
REMARK  146  A    between atoms: _354  and  _357
REMARK  147  A    between atoms: _357  and  _358
REMARK  148  A    between atoms: _361  and  _363
REMARK  149  A    between atoms: _363  and  _364
REMARK  150  A    between atoms: _363  and  _366
REMARK  151  A    between atoms: _366  and  _367
REMARK  152  A    between atoms: _370  and  _372
REMARK  153  A    between atoms: _372  and  _373
REMARK  154  A    between atoms: _372  and  _375
REMARK  155  A    between atoms: _375  and  _376
REMARK  156  A    between atoms: _379  and  _381
REMARK  157  A    between atoms: _381  and  _382
REMARK  158  A    between atoms: _381  and  _384
REMARK  159  A    between atoms: _384  and  _385
REMARK  160  A    between atoms: _390  and  _391
REMARK  161  A    between atoms: _393  and  _395
REMARK  162  A    between atoms: _395  and  _396
REMARK  163  A    between atoms: _395  and  _398
REMARK  164  A    between atoms: _398  and  _399
REMARK  165  A    between atoms: _404  and  _405
REMARK  166  A    between atoms: _407  and  _409
REMARK  167  A    between atoms: _409  and  _410
REMARK  168  A    between atoms: _409  and  _412
REMARK  169  A    between atoms: _412  and  _413
REMARK  170  A    between atoms: _416  and  _418
REMARK  171  A    between atoms: _418  and  _419
REMARK  172  A    between atoms: _418  and  _421
REMARK  173  A    between atoms: _421  and  _422
REMARK  174  A    between atoms: _422  and  _423
REMARK  175  A    between atoms: _428  and  _430
REMARK  176  A    between atoms: _430  and  _431
REMARK  177  A    between atoms: _430  and  _433
REMARK  178  A    between atoms: _436  and  _438
REMARK  179  A    between atoms: _438  and  _439
REMARK  180  A    between atoms: _438  and  _441
REMARK  181  A    between atoms: _441  and  _442
REMARK  182  A    between atoms: _445  and  _447
REMARK  183  A    between atoms: _447  and  _448
REMARK  184  A    between atoms: _447  and  _450
REMARK  185  A    between atoms: _450  and  _451
REMARK  186  A    between atoms: _453  and  _455
REMARK  187  A    between atoms: _455  and  _456
REMARK  188  A    between atoms: _458  and  _460
REMARK  189  A    between atoms: _460  and  _461
REMARK  190  A    between atoms: _460  and  _463
REMARK  191  A    between atoms: _463  and  _464
REMARK  192  A    between atoms: _464  and  _790
REMARK  193  A    between atoms: _465  and  _467
REMARK  194  A    between atoms: _467  and  _468
REMARK  195  A    between atoms: _467  and  _470
REMARK  196  A    between atoms: _470  and  _471
REMARK  197  A    between atoms: _476  and  _477
REMARK  198  A    between atoms: _479  and  _481
REMARK  199  A    between atoms: _481  and  _482
REMARK  200  A    between atoms: _481  and  _484
REMARK  201  A    between atoms: _484  and  _485
REMARK  202  A    between atoms: _485  and  _486
REMARK  203  A    between atoms: _491  and  _493
REMARK  204  A    between atoms: _493  and  _494
REMARK  205  A    between atoms: _493  and  _496
REMARK  206  A    between atoms: _496  and  _497
REMARK  207  A    between atoms: _497  and  _498
REMARK  208  A    between atoms: _503  and  _505
REMARK  209  A    between atoms: _505  and  _506
REMARK  210  A    between atoms: _505  and  _508
REMARK  211  A    between atoms: _508  and  _509
REMARK  212  A    between atoms: _514  and  _515
REMARK  213  A    between atoms: _517  and  _519
REMARK  214  A    between atoms: _519  and  _520
REMARK  215  A    between atoms: _523  and  _525
REMARK  216  A    between atoms: _525  and  _526
REMARK  217  A    between atoms: _525  and  _528
REMARK  218  A    between atoms: _528  and  _529
REMARK  219  A    between atoms: _534  and  _535
REMARK  220  A    between atoms: _537  and  _539
REMARK  221  A    between atoms: _539  and  _540
REMARK  222  A    between atoms: _539  and  _542
REMARK  223  A    between atoms: _542  and  _543
REMARK  224  A    between atoms: _548  and  _549
REMARK  225  A    between atoms: _551  and  _553
REMARK  226  A    between atoms: _553  and  _554
REMARK  227  A    between atoms: _553  and  _556
REMARK  228  A    between atoms: _556  and  _557
REMARK  229  A    between atoms: _560  and  _562
REMARK  230  A    between atoms: _562  and  _563
REMARK  231  A    between atoms: _562  and  _565
REMARK  232  A    between atoms: _565  and  _566
REMARK  233  A    between atoms: _576  and  _578
REMARK  234  A    between atoms: _578  and  _579
REMARK  235  A    between atoms: _582  and  _584
REMARK  236  A    between atoms: _584  and  _585
REMARK  237  A    between atoms: _588  and  _590
REMARK  238  A    between atoms: _590  and  _591
REMARK  239  A    between atoms: _590  and  _593
REMARK  240  A    between atoms: _593  and  _594
REMARK  241  A    between atoms: _597  and  _599
REMARK  242  A    between atoms: _599  and  _600
REMARK  243  A    between atoms: _599  and  _602
REMARK  244  A    between atoms: _602  and  _603
REMARK  245  A    between atoms: _606  and  _608
REMARK  246  A    between atoms: _608  and  _609
REMARK  247  A    between atoms: _608  and  _611
REMARK  248  A    between atoms: _611  and  _612
REMARK  249  A    between atoms: _615  and  _617
REMARK  250  A    between atoms: _617  and  _618
REMARK  251  A    between atoms: _617  and  _620
REMARK  252  A    between atoms: _620  and  _621
REMARK  253  A    between atoms: _621  and  _622
REMARK  254  A    between atoms: _622  and  _623
REMARK  255  A    between atoms: _623  and  _624
REMARK  256  A    between atoms: _628  and  _630
REMARK  257  A    between atoms: _630  and  _631
REMARK  258  A    between atoms: _630  and  _633
REMARK  259  A    between atoms: _633  and  _634
REMARK  260  A    between atoms: _639  and  _641
REMARK  261  A    between atoms: _641  and  _642
REMARK  262  A    between atoms: _641  and  _644
REMARK  263  A    between atoms: _644  and  _645
REMARK  264  A    between atoms: _645  and  _646
REMARK  265  A    between atoms: _646  and  _647
REMARK  266  A    between atoms: _647  and  _648
REMARK  267  A    between atoms: _652  and  _654
REMARK  268  A    between atoms: _654  and  _655
REMARK  269  A    between atoms: _654  and  _657
REMARK  270  A    between atoms: _657  and  _658
REMARK  271  A    between atoms: _668  and  _670
REMARK  272  A    between atoms: _670  and  _671
REMARK  273  A    between atoms: _674  and  _676
REMARK  274  A    between atoms: _676  and  _677
REMARK  275  A    between atoms: _679  and  _681
REMARK  276  A    between atoms: _681  and  _682
REMARK  277  A    between atoms: _685  and  _687
REMARK  278  A    between atoms: _687  and  _688
REMARK  279  A    between atoms: _691  and  _693
REMARK  280  A    between atoms: _693  and  _694
REMARK  281  A    between atoms: _693  and  _696
REMARK  282  A    between atoms: _696  and  _697
REMARK  283  A    between atoms: _697  and  _698
REMARK  284  A    between atoms: _701  and  _703
REMARK  285  A    between atoms: _703  and  _704
REMARK  286  A    between atoms: _703  and  _706
REMARK  287  A    between atoms: _706  and  _707
REMARK  288  A    between atoms: _712  and  _713
REMARK  289  A    between atoms: _715  and  _717
REMARK  290  A    between atoms: _717  and  _718
REMARK  291  A    between atoms: _717  and  _720
REMARK  292  A    between atoms: _720  and  _721
REMARK  293  A    between atoms: _726  and  _727
REMARK  294  A    between atoms: _729  and  _731
REMARK  295  A    between atoms: _731  and  _732
REMARK  296  A    between atoms: _731  and  _734
REMARK  297  A    between atoms: _734  and  _735
REMARK  298  A    between atoms: _735  and  _736
REMARK  299  A    between atoms: _736  and  _737
REMARK  300  A    between atoms: _746  and  _748
REMARK  301  A    between atoms: _748  and  _749
REMARK  302  A    between atoms: _752  and  _754
REMARK  303  A    between atoms: _754  and  _755
REMARK  304  A    between atoms: _754  and  _757
REMARK  305  A    between atoms: _757  and  _758
REMARK  306  A    between atoms: _763  and  _764
REMARK  307  A    between atoms: _766  and  _768
REMARK  308  A    between atoms: _768  and  _769
REMARK  309  A    between atoms: _768  and  _771
REMARK  310  A    between atoms: _771  and  _772
REMARK  311  A    between atoms: _775  and  _777
REMARK  312  A    between atoms: _777  and  _778
REMARK  313  A    between atoms: _777  and  _780
REMARK  314  A    between atoms: _780  and  _781
REMARK  315  A    between atoms: _784  and  _786
REMARK  316  A    between atoms: _786  and  _787
REMARK  317  A    between atoms: _786  and  _789
REMARK  318  A    between atoms: _789  and  _790
REMARK  319  A    between atoms: _791  and  _793
REMARK  320  A    between atoms: _793  and  _794
REMARK  321  A    between atoms: _793  and  _796
REMARK  322  A    between atoms: _799  and  _801
REMARK  323  A    between atoms: _801  and  _802
REMARK  324  A    between atoms: _801  and  _804
REMARK  325  A    between atoms: _804  and  _805
REMARK  326  A    between atoms: _805  and  _806
REMARK  327  A    between atoms: _809  and  _811
REMARK  328  A    between atoms: _811  and  _812
REMARK  329  A    between atoms: _811  and  _814
REMARK  330  A    between atoms: _814  and  _815
REMARK  331  A    between atoms: _825  and  _827
REMARK  332  A    between atoms: _827  and  _828
REMARK  333  A    between atoms: _827  and  _830
REMARK  334  A    between atoms: _830  and  _831
REMARK  335  A    between atoms: _834  and  _836
REMARK  336  A    between atoms: _836  and  _837
REMARK  337  A    between atoms: _836  and  _839
REMARK  338  A    between atoms: _839  and  _840
REMARK  339  A    between atoms: _840  and  _841
REMARK  340  A    between atoms: _841  and  _842
REMARK  341  A    between atoms: _851  and  _853
REMARK  342  A    between atoms: _853  and  _854
REMARK  343  A    between atoms: _853  and  _856
REMARK  344  A    between atoms: _856  and  _857
REMARK  345  A    between atoms: _862  and  _863
REMARK                            x       y       z     vdW  Elec       q    Type
REMARK                         _______ _______ _______ _____ _____    ______ ____
ROOT
ATOM      1  O   HOH     1      34.001  58.049 -13.514  0.00  0.00    +0.000 OA
ENDROOT
TORSDOF 0
REMARK  Name = ../refined-set-2016/1fzj/1fzj_pocket.pdb
REMARK  345 active torsions:
REMARK  status: ('A' for Active; 'I' for Inactive)
REMARK    1  A    between atoms: _1  and  _3
REMARK    2  A    between atoms: _3  and  _4
REMARK    3  A    between atoms: _3  and  _6
REMARK    4  A    between atoms: _6  and  _7
REMARK    5  A    between atoms: _10  and  _12
REMARK    6  A    between atoms: _12  and  _13
REMARK    7  A    between atoms: _12  and  _15
REMARK    8  A    between atoms: _15  and  _16
REMARK    9  A    between atoms: _16  and  _17
REMARK   10  A    between atoms: _17  and  _18
REMARK   11  A    between atoms: _27  and  _29
REMARK   12  A    between atoms: _29  and  _30
REMARK   13  A    between atoms: _29  and  _32
REMARK   14  A    between atoms: _32  and  _33
REMARK   15  A    between atoms: _38  and  _39
REMARK   16  A    between atoms: _41  and  _43
REMARK   17  A    between atoms: _43  and  _44
REMARK   18  A    between atoms: _43  and  _46
REMARK   19  A    between atoms: _46  and  _47
REMARK   20  A    between atoms: _53  and  _55
REMARK   21  A    between atoms: _55  and  _56
REMARK   22  A    between atoms: _55  and  _58
REMARK   23  A    between atoms: _61  and  _63
REMARK   24  A    between atoms: _63  and  _64
REMARK   25  A    between atoms: _63  and  _66
REMARK   26  A    between atoms: _66  and  _67
REMARK   27  A    between atoms: _70  and  _72
REMARK   28  A    between atoms: _72  and  _73
REMARK   29  A    between atoms: _72  and  _75
REMARK   30  A    between atoms: _75  and  _76
REMARK   31  A    between atoms: _81  and  _82
REMARK   32  A    between atoms: _84  and  _86
REMARK   33  A    between atoms: _86  and  _87
REMARK   34  A    between atoms: _86  and  _89
REMARK   35  A    between atoms: _89  and  _90
REMARK   36  A    between atoms: _90  and  _91
REMARK   37  A    between atoms: _93  and  _95
REMARK   38  A    between atoms: _95  and  _96
REMARK   39  A    between atoms: _95  and  _98
REMARK   40  A    between atoms: _98  and  _99
REMARK   41  A    between atoms: _99  and  _100
REMARK   42  A    between atoms: _103  and  _105
REMARK   43  A    between atoms: _105  and  _106
REMARK   44  A    between atoms: _105  and  _108
REMARK   45  A    between atoms: _111  and  _113
REMARK   46  A    between atoms: _113  and  _114
REMARK   47  A    between atoms: _113  and  _116
REMARK   48  A    between atoms: _119  and  _121
REMARK   49  A    between atoms: _121  and  _122
REMARK   50  A    between atoms: _121  and  _124
REMARK   51  A    between atoms: _124  and  _125
REMARK   52  A    between atoms: _131  and  _133
REMARK   53  A    between atoms: _133  and  _134
REMARK   54  A    between atoms: _133  and  _136
REMARK   55  A    between atoms: _139  and  _141
REMARK   56  A    between atoms: _141  and  _142
REMARK   57  A    between atoms: _141  and  _144
REMARK   58  A    between atoms: _144  and  _145
REMARK   59  A    between atoms: _150  and  _151
REMARK   60  A    between atoms: _153  and  _155
REMARK   61  A    between atoms: _155  and  _156
REMARK   62  A    between atoms: _155  and  _158
REMARK   63  A    between atoms: _158  and  _159
REMARK   64  A    between atoms: _159  and  _160
REMARK   65  A    between atoms: _162  and  _164
REMARK   66  A    between atoms: _164  and  _165
REMARK   67  A    between atoms: _164  and  _167
REMARK   68  A    between atoms: _167  and  _168
REMARK   69  A    between atoms: _168  and  _169
REMARK   70  A    between atoms: _172  and  _174
REMARK   71  A    between atoms: _174  and  _175
REMARK   72  A    between atoms: _174  and  _177
REMARK   73  A    between atoms: _177  and  _178
REMARK   74  A    between atoms: _178  and  _179
REMARK   75  A    between atoms: _182  and  _184
REMARK   76  A    between atoms: _184  and  _185
REMARK   77  A    between atoms: _184  and  _187
REMARK   78  A    between atoms: _187  and  _188
REMARK   79  A    between atoms: _193  and  _194
REMARK   80  A    between atoms: _196  and  _198
REMARK   81  A    between atoms: _198  and  _199
REMARK   82  A    between atoms: _198  and  _201
REMARK   83  A    between atoms: _201  and  _202
REMARK   84  A    between atoms: _212  and  _214
REMARK   85  A    between atoms: _214  and  _215
REMARK   86  A    between atoms: _214  and  _217
REMARK   87  A    between atoms: _217  and  _218
REMARK   88  A    between atoms: _218  and  _219
REMARK   89  A    between atoms: _222  and  _224
REMARK   90  A    between atoms: _224  and  _225
REMARK   91  A    between atoms: _224  and  _227
REMARK   92  A    between atoms: _227  and  _228
REMARK   93  A    between atoms: _228  and  _229
REMARK   94  A    between atoms: _229  and  _230
REMARK   95  A    between atoms: _239  and  _241
REMARK   96  A    between atoms: _241  and  _242
REMARK   97  A    between atoms: _241  and  _244
REMARK   98  A    between atoms: _244  and  _245
REMARK   99  A    between atoms: _245  and  _246
REMARK  100  A    between atoms: _249  and  _251
REMARK  101  A    between atoms: _251  and  _252
REMARK  102  A    between atoms: _251  and  _254
REMARK  103  A    between atoms: _254  and  _255
REMARK  104  A    between atoms: _258  and  _260
REMARK  105  A    between atoms: _260  and  _261
REMARK  106  A    between atoms: _260  and  _263
REMARK  107  A    between atoms: _263  and  _264
REMARK  108  A    between atoms: _264  and  _265
REMARK  109  A    between atoms: _270  and  _272
REMARK  110  A    between atoms: _272  and  _273
REMARK  111  A    between atoms: _272  and  _275
REMARK  112  A    between atoms: _275  and  _276
REMARK  113  A    between atoms: _276  and  _277
REMARK  114  A    between atoms: _277  and  _278
REMARK  115  A    between atoms: _278  and  _279
REMARK  116  A    between atoms: _283  and  _285
REMARK  117  A    between atoms: _285  and  _286
REMARK  118  A    between atoms: _289  and  _291
REMARK  119  A    between atoms: _291  and  _292
REMARK  120  A    between atoms: _294  and  _296
REMARK  121  A    between atoms: _296  and  _297
REMARK  122  A    between atoms: _296  and  _299
REMARK  123  A    between atoms: _299  and  _300
REMARK  124  A    between atoms: _305  and  _307
REMARK  125  A    between atoms: _307  and  _308
REMARK  126  A    between atoms: _307  and  _310
REMARK  127  A    between atoms: _310  and  _311
REMARK  128  A    between atoms: _311  and  _312
REMARK  129  A    between atoms: _315  and  _317
REMARK  130  A    between atoms: _317  and  _318
REMARK  131  A    between atoms: _317  and  _320
REMARK  132  A    between atoms: _320  and  _321
REMARK  133  A    between atoms: _323  and  _325
REMARK  134  A    between atoms: _325  and  _326
REMARK  135  A    between atoms: _325  and  _328
REMARK  136  A    between atoms: _328  and  _329
REMARK  137  A    between atoms: _335  and  _337
REMARK  138  A    between atoms: _337  and  _338
REMARK  139  A    between atoms: _337  and  _340
REMARK  140  A    between atoms: _343  and  _345
REMARK  141  A    between atoms: _345  and  _346
REMARK  142  A    between atoms: _345  and  _348
REMARK  143  A    between atoms: _348  and  _349
REMARK  144  A    between atoms: _352  and  _354
REMARK  145  A    between atoms: _354  and  _355
REMARK  146  A    between atoms: _354  and  _357
REMARK  147  A    between atoms: _357  and  _358
REMARK  148  A    between atoms: _361  and  _363
REMARK  149  A    between atoms: _363  and  _364
REMARK  150  A    between atoms: _363  and  _366
REMARK  151  A    between atoms: _366  and  _367
REMARK  152  A    between atoms: _370  and  _372
REMARK  153  A    between atoms: _372  and  _373
REMARK  154  A    between atoms: _372  and  _375
REMARK  155  A    between atoms: _375  and  _376
REMARK  156  A    between atoms: _379  and  _381
REMARK  157  A    between atoms: _381  and  _382
REMARK  158  A    between atoms: _381  and  _384
REMARK  159  A    between atoms: _384  and  _385
REMARK  160  A    between atoms: _390  and  _391
REMARK  161  A    between atoms: _393  and  _395
REMARK  162  A    between atoms: _395  and  _396
REMARK  163  A    between atoms: _395  and  _398
REMARK  164  A    between atoms: _398  and  _399
REMARK  165  A    between atoms: _404  and  _405
REMARK  166  A    between atoms: _407  and  _409
REMARK  167  A    between atoms: _409  and  _410
REMARK  168  A    between atoms: _409  and  _412
REMARK  169  A    between atoms: _412  and  _413
REMARK  170  A    between atoms: _416  and  _418
REMARK  171  A    between atoms: _418  and  _419
REMARK  172  A    between atoms: _418  and  _421
REMARK  173  A    between atoms: _421  and  _422
REMARK  174  A    between atoms: _422  and  _423
REMARK  175  A    between atoms: _428  and  _430
REMARK  176  A    between atoms: _430  and  _431
REMARK  177  A    between atoms: _430  and  _433
REMARK  178  A    between atoms: _436  and  _438
REMARK  179  A    between atoms: _438  and  _439
REMARK  180  A    between atoms: _438  and  _441
REMARK  181  A    between atoms: _441  and  _442
REMARK  182  A    between atoms: _445  and  _447
REMARK  183  A    between atoms: _447  and  _448
REMARK  184  A    between atoms: _447  and  _450
REMARK  185  A    between atoms: _450  and  _451
REMARK  186  A    between atoms: _453  and  _455
REMARK  187  A    between atoms: _455  and  _456
REMARK  188  A    between atoms: _458  and  _460
REMARK  189  A    between atoms: _460  and  _461
REMARK  190  A    between atoms: _460  and  _463
REMARK  191  A    between atoms: _463  and  _464
REMARK  192  A    between atoms: _464  and  _790
REMARK  193  A    between atoms: _465  and  _467
REMARK  194  A    between atoms: _467  and  _468
REMARK  195  A    between atoms: _467  and  _470
REMARK  196  A    between atoms: _470  and  _471
REMARK  197  A    between atoms: _476  and  _477
REMARK  198  A    between atoms: _479  and  _481
REMARK  199  A    between atoms: _481  and  _482
REMARK  200  A    between atoms: _481  and  _484
REMARK  201  A    between atoms: _484  and  _485
REMARK  202  A    between atoms: _485  and  _486
REMARK  203  A    between atoms: _491  and  _493
REMARK  204  A    between atoms: _493  and  _494
REMARK  205  A    between atoms: _493  and  _496
REMARK  206  A    between atoms: _496  and  _497
REMARK  207  A    between atoms: _497  and  _498
REMARK  208  A    between atoms: _503  and  _505
REMARK  209  A    between atoms: _505  and  _506
REMARK  210  A    between atoms: _505  and  _508
REMARK  211  A    between atoms: _508  and  _509
REMARK  212  A    between atoms: _514  and  _515
REMARK  213  A    between atoms: _517  and  _519
REMARK  214  A    between atoms: _519  and  _520
REMARK  215  A    between atoms: _523  and  _525
REMARK  216  A    between atoms: _525  and  _526
REMARK  217  A    between atoms: _525  and  _528
REMARK  218  A    between atoms: _528  and  _529
REMARK  219  A    between atoms: _534  and  _535
REMARK  220  A    between atoms: _537  and  _539
REMARK  221  A    between atoms: _539  and  _540
REMARK  222  A    between atoms: _539  and  _542
REMARK  223  A    between atoms: _542  and  _543
REMARK  224  A    between atoms: _548  and  _549
REMARK  225  A    between atoms: _551  and  _553
REMARK  226  A    between atoms: _553  and  _554
REMARK  227  A    between atoms: _553  and  _556
REMARK  228  A    between atoms: _556  and  _557
REMARK  229  A    between atoms: _560  and  _562
REMARK  230  A    between atoms: _562  and  _563
REMARK  231  A    between atoms: _562  and  _565
REMARK  232  A    between atoms: _565  and  _566
REMARK  233  A    between atoms: _576  and  _578
REMARK  234  A    between atoms: _578  and  _579
REMARK  235  A    between atoms: _582  and  _584
REMARK  236  A    between atoms: _584  and  _585
REMARK  237  A    between atoms: _588  and  _590
REMARK  238  A    between atoms: _590  and  _591
REMARK  239  A    between atoms: _590  and  _593
REMARK  240  A    between atoms: _593  and  _594
REMARK  241  A    between atoms: _597  and  _599
REMARK  242  A    between atoms: _599  and  _600
REMARK  243  A    between atoms: _599  and  _602
REMARK  244  A    between atoms: _602  and  _603
REMARK  245  A    between atoms: _606  and  _608
REMARK  246  A    between atoms: _608  and  _609
REMARK  247  A    between atoms: _608  and  _611
REMARK  248  A    between atoms: _611  and  _612
REMARK  249  A    between atoms: _615  and  _617
REMARK  250  A    between atoms: _617  and  _618
REMARK  251  A    between atoms: _617  and  _620
REMARK  252  A    between atoms: _620  and  _621
REMARK  253  A    between atoms: _621  and  _622
REMARK  254  A    between atoms: _622  and  _623
REMARK  255  A    between atoms: _623  and  _624
REMARK  256  A    between atoms: _628  and  _630
REMARK  257  A    between atoms: _630  and  _631
REMARK  258  A    between atoms: _630  and  _633
REMARK  259  A    between atoms: _633  and  _634
REMARK  260  A    between atoms: _639  and  _641
REMARK  261  A    between atoms: _641  and  _642
REMARK  262  A    between atoms: _641  and  _644
REMARK  263  A    between atoms: _644  and  _645
REMARK  264  A    between atoms: _645  and  _646
REMARK  265  A    between atoms: _646  and  _647
REMARK  266  A    between atoms: _647  and  _648
REMARK  267  A    between atoms: _652  and  _654
REMARK  268  A    between atoms: _654  and  _655
REMARK  269  A    between atoms: _654  and  _657
REMARK  270  A    between atoms: _657  and  _658
REMARK  271  A    between atoms: _668  and  _670
REMARK  272  A    between atoms: _670  and  _671
REMARK  273  A    between atoms: _674  and  _676
REMARK  274  A    between atoms: _676  and  _677
REMARK  275  A    between atoms: _679  and  _681
REMARK  276  A    between atoms: _681  and  _682
REMARK  277  A    between atoms: _685  and  _687
REMARK  278  A    between atoms: _687  and  _688
REMARK  279  A    between atoms: _691  and  _693
REMARK  280  A    between atoms: _693  and  _694
REMARK  281  A    between atoms: _693  and  _696
REMARK  282  A    between atoms: _696  and  _697
REMARK  283  A    between atoms: _697  and  _698
REMARK  284  A    between atoms: _701  and  _703
REMARK  285  A    between atoms: _703  and  _704
REMARK  286  A    between atoms: _703  and  _706
REMARK  287  A    between atoms: _706  and  _707
REMARK  288  A    between atoms: _712  and  _713
REMARK  289  A    between atoms: _715  and  _717
REMARK  290  A    between atoms: _717  and  _718
REMARK  291  A    between atoms: _717  and  _720
REMARK  292  A    between atoms: _720  and  _721
REMARK  293  A    between atoms: _726  and  _727
REMARK  294  A    between atoms: _729  and  _731
REMARK  295  A    between atoms: _731  and  _732
REMARK  296  A    between atoms: _731  and  _734
REMARK  297  A    between atoms: _734  and  _735
REMARK  298  A    between atoms: _735  and  _736
REMARK  299  A    between atoms: _736  and  _737
REMARK  300  A    between atoms: _746  and  _748
REMARK  301  A    between atoms: _748  and  _749
REMARK  302  A    between atoms: _752  and  _754
REMARK  303  A    between atoms: _754  and  _755
REMARK  304  A    between atoms: _754  and  _757
REMARK  305  A    between atoms: _757  and  _758
REMARK  306  A    between atoms: _763  and  _764
REMARK  307  A    between atoms: _766  and  _768
REMARK  308  A    between atoms: _768  and  _769
REMARK  309  A    between atoms: _768  and  _771
REMARK  310  A    between atoms: _771  and  _772
REMARK  311  A    between atoms: _775  and  _777
REMARK  312  A    between atoms: _777  and  _778
REMARK  313  A    between atoms: _777  and  _780
REMARK  314  A    between atoms: _780  and  _781
REMARK  315  A    between atoms: _784  and  _786
REMARK  316  A    between atoms: _786  and  _787
REMARK  317  A    between atoms: _786  and  _789
REMARK  318  A    between atoms: _789  and  _790
REMARK  319  A    between atoms: _791  and  _793
REMARK  320  A    between atoms: _793  and  _794
REMARK  321  A    between atoms: _793  and  _796
REMARK  322  A    between atoms: _799  and  _801
REMARK  323  A    between atoms: _801  and  _802
REMARK  324  A    between atoms: _801  and  _804
REMARK  325  A    between atoms: _804  and  _805
REMARK  326  A    between atoms: _805  and  _806
REMARK  327  A    between atoms: _809  and  _811
REMARK  328  A    between atoms: _811  and  _812
REMARK  329  A    between atoms: _811  and  _814
REMARK  330  A    between atoms: _814  and  _815
REMARK  331  A    between atoms: _825  and  _827
REMARK  332  A    between atoms: _827  and  _828
REMARK  333  A    between atoms: _827  and  _830
REMARK  334  A    between atoms: _830  and  _831
REMARK  335  A    between atoms: _834  and  _836
REMARK  336  A    between atoms: _836  and  _837
REMARK  337  A    between atoms: _836  and  _839
REMARK  338  A    between atoms: _839  and  _840
REMARK  339  A    between atoms: _840  and  _841
REMARK  340  A    between atoms: _841  and  _842
REMARK  341  A    between atoms: _851  and  _853
REMARK  342  A    between atoms: _853  and  _854
REMARK  343  A    between atoms: _853  and  _856
REMARK  344  A    between atoms: _856  and  _857
REMARK  345  A    between atoms: _862  and  _863
REMARK                            x       y       z     vdW  Elec       q    Type
REMARK                         _______ _______ _______ _____ _____    ______ ____
ROOT
ATOM      1  O   HOH     1      46.253  60.062 -10.296  0.00  0.00    +0.000 OA
ENDROOT
TORSDOF 0
REMARK  Name = ../refined-set-2016/1fzj/1fzj_pocket.pdb
REMARK  345 active torsions:
REMARK  status: ('A' for Active; 'I' for Inactive)
REMARK    1  A    between atoms: _1  and  _3
REMARK    2  A    between atoms: _3  and  _4
REMARK    3  A    between atoms: _3  and  _6
REMARK    4  A    between atoms: _6  and  _7
REMARK    5  A    between atoms: _10  and  _12
REMARK    6  A    between atoms: _12  and  _13
REMARK    7  A    between atoms: _12  and  _15
REMARK    8  A    between atoms: _15  and  _16
REMARK    9  A    between atoms: _16  and  _17
REMARK   10  A    between atoms: _17  and  _18
REMARK   11  A    between atoms: _27  and  _29
REMARK   12  A    between atoms: _29  and  _30
REMARK   13  A    between atoms: _29  and  _32
REMARK   14  A    between atoms: _32  and  _33
REMARK   15  A    between atoms: _38  and  _39
REMARK   16  A    between atoms: _41  and  _43
REMARK   17  A    between atoms: _43  and  _44
REMARK   18  A    between atoms: _43  and  _46
REMARK   19  A    between atoms: _46  and  _47
REMARK   20  A    between atoms: _53  and  _55
REMARK   21  A    between atoms: _55  and  _56
REMARK   22  A    between atoms: _55  and  _58
REMARK   23  A    between atoms: _61  and  _63
REMARK   24  A    between atoms: _63  and  _64
REMARK   25  A    between atoms: _63  and  _66
REMARK   26  A    between atoms: _66  and  _67
REMARK   27  A    between atoms: _70  and  _72
REMARK   28  A    between atoms: _72  and  _73
REMARK   29  A    between atoms: _72  and  _75
REMARK   30  A    between atoms: _75  and  _76
REMARK   31  A    between atoms: _81  and  _82
REMARK   32  A    between atoms: _84  and  _86
REMARK   33  A    between atoms: _86  and  _87
REMARK   34  A    between atoms: _86  and  _89
REMARK   35  A    between atoms: _89  and  _90
REMARK   36  A    between atoms: _90  and  _91
REMARK   37  A    between atoms: _93  and  _95
REMARK   38  A    between atoms: _95  and  _96
REMARK   39  A    between atoms: _95  and  _98
REMARK   40  A    between atoms: _98  and  _99
REMARK   41  A    between atoms: _99  and  _100
REMARK   42  A    between atoms: _103  and  _105
REMARK   43  A    between atoms: _105  and  _106
REMARK   44  A    between atoms: _105  and  _108
REMARK   45  A    between atoms: _111  and  _113
REMARK   46  A    between atoms: _113  and  _114
REMARK   47  A    between atoms: _113  and  _116
REMARK   48  A    between atoms: _119  and  _121
REMARK   49  A    between atoms: _121  and  _122
REMARK   50  A    between atoms: _121  and  _124
REMARK   51  A    between atoms: _124  and  _125
REMARK   52  A    between atoms: _131  and  _133
REMARK   53  A    between atoms: _133  and  _134
REMARK   54  A    between atoms: _133  and  _136
REMARK   55  A    between atoms: _139  and  _141
REMARK   56  A    between atoms: _141  and  _142
REMARK   57  A    between atoms: _141  and  _144
REMARK   58  A    between atoms: _144  and  _145
REMARK   59  A    between atoms: _150  and  _151
REMARK   60  A    between atoms: _153  and  _155
REMARK   61  A    between atoms: _155  and  _156
REMARK   62  A    between atoms: _155  and  _158
REMARK   63  A    between atoms: _158  and  _159
REMARK   64  A    between atoms: _159  and  _160
REMARK   65  A    between atoms: _162  and  _164
REMARK   66  A    between atoms: _164  and  _165
REMARK   67  A    between atoms: _164  and  _167
REMARK   68  A    between atoms: _167  and  _168
REMARK   69  A    between atoms: _168  and  _169
REMARK   70  A    between atoms: _172  and  _174
REMARK   71  A    between atoms: _174  and  _175
REMARK   72  A    between atoms: _174  and  _177
REMARK   73  A    between atoms: _177  and  _178
REMARK   74  A    between atoms: _178  and  _179
REMARK   75  A    between atoms: _182  and  _184
REMARK   76  A    between atoms: _184  and  _185
REMARK   77  A    between atoms: _184  and  _187
REMARK   78  A    between atoms: _187  and  _188
REMARK   79  A    between atoms: _193  and  _194
REMARK   80  A    between atoms: _196  and  _198
REMARK   81  A    between atoms: _198  and  _199
REMARK   82  A    between atoms: _198  and  _201
REMARK   83  A    between atoms: _201  and  _202
REMARK   84  A    between atoms: _212  and  _214
REMARK   85  A    between atoms: _214  and  _215
REMARK   86  A    between atoms: _214  and  _217
REMARK   87  A    between atoms: _217  and  _218
REMARK   88  A    between atoms: _218  and  _219
REMARK   89  A    between atoms: _222  and  _224
REMARK   90  A    between atoms: _224  and  _225
REMARK   91  A    between atoms: _224  and  _227
REMARK   92  A    between atoms: _227  and  _228
REMARK   93  A    between atoms: _228  and  _229
REMARK   94  A    between atoms: _229  and  _230
REMARK   95  A    between atoms: _239  and  _241
REMARK   96  A    between atoms: _241  and  _242
REMARK   97  A    between atoms: _241  and  _244
REMARK   98  A    between atoms: _244  and  _245
REMARK   99  A    between atoms: _245  and  _246
REMARK  100  A    between atoms: _249  and  _251
REMARK  101  A    between atoms: _251  and  _252
REMARK  102  A    between atoms: _251  and  _254
REMARK  103  A    between atoms: _254  and  _255
REMARK  104  A    between atoms: _258  and  _260
REMARK  105  A    between atoms: _260  and  _261
REMARK  106  A    between atoms: _260  and  _263
REMARK  107  A    between atoms: _263  and  _264
REMARK  108  A    between atoms: _264  and  _265
REMARK  109  A    between atoms: _270  and  _272
REMARK  110  A    between atoms: _272  and  _273
REMARK  111  A    between atoms: _272  and  _275
REMARK  112  A    between atoms: _275  and  _276
REMARK  113  A    between atoms: _276  and  _277
REMARK  114  A    between atoms: _277  and  _278
REMARK  115  A    between atoms: _278  and  _279
REMARK  116  A    between atoms: _283  and  _285
REMARK  117  A    between atoms: _285  and  _286
REMARK  118  A    between atoms: _289  and  _291
REMARK  119  A    between atoms: _291  and  _292
REMARK  120  A    between atoms: _294  and  _296
REMARK  121  A    between atoms: _296  and  _297
REMARK  122  A    between atoms: _296  and  _299
REMARK  123  A    between atoms: _299  and  _300
REMARK  124  A    between atoms: _305  and  _307
REMARK  125  A    between atoms: _307  and  _308
REMARK  126  A    between atoms: _307  and  _310
REMARK  127  A    between atoms: _310  and  _311
REMARK  128  A    between atoms: _311  and  _312
REMARK  129  A    between atoms: _315  and  _317
REMARK  130  A    between atoms: _317  and  _318
REMARK  131  A    between atoms: _317  and  _320
REMARK  132  A    between atoms: _320  and  _321
REMARK  133  A    between atoms: _323  and  _325
REMARK  134  A    between atoms: _325  and  _326
REMARK  135  A    between atoms: _325  and  _328
REMARK  136  A    between atoms: _328  and  _329
REMARK  137  A    between atoms: _335  and  _337
REMARK  138  A    between atoms: _337  and  _338
REMARK  139  A    between atoms: _337  and  _340
REMARK  140  A    between atoms: _343  and  _345
REMARK  141  A    between atoms: _345  and  _346
REMARK  142  A    between atoms: _345  and  _348
REMARK  143  A    between atoms: _348  and  _349
REMARK  144  A    between atoms: _352  and  _354
REMARK  145  A    between atoms: _354  and  _355
REMARK  146  A    between atoms: _354  and  _357
REMARK  147  A    between atoms: _357  and  _358
REMARK  148  A    between atoms: _361  and  _363
REMARK  149  A    between atoms: _363  and  _364
REMARK  150  A    between atoms: _363  and  _366
REMARK  151  A    between atoms: _366  and  _367
REMARK  152  A    between atoms: _370  and  _372
REMARK  153  A    between atoms: _372  and  _373
REMARK  154  A    between atoms: _372  and  _375
REMARK  155  A    between atoms: _375  and  _376
REMARK  156  A    between atoms: _379  and  _381
REMARK  157  A    between atoms: _381  and  _382
REMARK  158  A    between atoms: _381  and  _384
REMARK  159  A    between atoms: _384  and  _385
REMARK  160  A    between atoms: _390  and  _391
REMARK  161  A    between atoms: _393  and  _395
REMARK  162  A    between atoms: _395  and  _396
REMARK  163  A    between atoms: _395  and  _398
REMARK  164  A    between atoms: _398  and  _399
REMARK  165  A    between atoms: _404  and  _405
REMARK  166  A    between atoms: _407  and  _409
REMARK  167  A    between atoms: _409  and  _410
REMARK  168  A    between atoms: _409  and  _412
REMARK  169  A    between atoms: _412  and  _413
REMARK  170  A    between atoms: _416  and  _418
REMARK  171  A    between atoms: _418  and  _419
REMARK  172  A    between atoms: _418  and  _421
REMARK  173  A    between atoms: _421  and  _422
REMARK  174  A    between atoms: _422  and  _423
REMARK  175  A    between atoms: _428  and  _430
REMARK  176  A    between atoms: _430  and  _431
REMARK  177  A    between atoms: _430  and  _433
REMARK  178  A    between atoms: _436  and  _438
REMARK  179  A    between atoms: _438  and  _439
REMARK  180  A    between atoms: _438  and  _441
REMARK  181  A    between atoms: _441  and  _442
REMARK  182  A    between atoms: _445  and  _447
REMARK  183  A    between atoms: _447  and  _448
REMARK  184  A    between atoms: _447  and  _450
REMARK  185  A    between atoms: _450  and  _451
REMARK  186  A    between atoms: _453  and  _455
REMARK  187  A    between atoms: _455  and  _456
REMARK  188  A    between atoms: _458  and  _460
REMARK  189  A    between atoms: _460  and  _461
REMARK  190  A    between atoms: _460  and  _463
REMARK  191  A    between atoms: _463  and  _464
REMARK  192  A    between atoms: _464  and  _790
REMARK  193  A    between atoms: _465  and  _467
REMARK  194  A    between atoms: _467  and  _468
REMARK  195  A    between atoms: _467  and  _470
REMARK  196  A    between atoms: _470  and  _471
REMARK  197  A    between atoms: _476  and  _477
REMARK  198  A    between atoms: _479  and  _481
REMARK  199  A    between atoms: _481  and  _482
REMARK  200  A    between atoms: _481  and  _484
REMARK  201  A    between atoms: _484  and  _485
REMARK  202  A    between atoms: _485  and  _486
REMARK  203  A    between atoms: _491  and  _493
REMARK  204  A    between atoms: _493  and  _494
REMARK  205  A    between atoms: _493  and  _496
REMARK  206  A    between atoms: _496  and  _497
REMARK  207  A    between atoms: _497  and  _498
REMARK  208  A    between atoms: _503  and  _505
REMARK  209  A    between atoms: _505  and  _506
REMARK  210  A    between atoms: _505  and  _508
REMARK  211  A    between atoms: _508  and  _509
REMARK  212  A    between atoms: _514  and  _515
REMARK  213  A    between atoms: _517  and  _519
REMARK  214  A    between atoms: _519  and  _520
REMARK  215  A    between atoms: _523  and  _525
REMARK  216  A    between atoms: _525  and  _526
REMARK  217  A    between atoms: _525  and  _528
REMARK  218  A    between atoms: _528  and  _529
REMARK  219  A    between atoms: _534  and  _535
REMARK  220  A    between atoms: _537  and  _539
REMARK  221  A    between atoms: _539  and  _540
REMARK  222  A    between atoms: _539  and  _542
REMARK  223  A    between atoms: _542  and  _543
REMARK  224  A    between atoms: _548  and  _549
REMARK  225  A    between atoms: _551  and  _553
REMARK  226  A    between atoms: _553  and  _554
REMARK  227  A    between atoms: _553  and  _556
REMARK  228  A    between atoms: _556  and  _557
REMARK  229  A    between atoms: _560  and  _562
REMARK  230  A    between atoms: _562  and  _563
REMARK  231  A    between atoms: _562  and  _565
REMARK  232  A    between atoms: _565  and  _566
REMARK  233  A    between atoms: _576  and  _578
REMARK  234  A    between atoms: _578  and  _579
REMARK  235  A    between atoms: _582  and  _584
REMARK  236  A    between atoms: _584  and  _585
REMARK  237  A    between atoms: _588  and  _590
REMARK  238  A    between atoms: _590  and  _591
REMARK  239  A    between atoms: _590  and  _593
REMARK  240  A    between atoms: _593  and  _594
REMARK  241  A    between atoms: _597  and  _599
REMARK  242  A    between atoms: _599  and  _600
REMARK  243  A    between atoms: _599  and  _602
REMARK  244  A    between atoms: _602  and  _603
REMARK  245  A    between atoms: _606  and  _608
REMARK  246  A    between atoms: _608  and  _609
REMARK  247  A    between atoms: _608  and  _611
REMARK  248  A    between atoms: _611  and  _612
REMARK  249  A    between atoms: _615  and  _617
REMARK  250  A    between atoms: _617  and  _618
REMARK  251  A    between atoms: _617  and  _620
REMARK  252  A    between atoms: _620  and  _621
REMARK  253  A    between atoms: _621  and  _622
REMARK  254  A    between atoms: _622  and  _623
REMARK  255  A    between atoms: _623  and  _624
REMARK  256  A    between atoms: _628  and  _630
REMARK  257  A    between atoms: _630  and  _631
REMARK  258  A    between atoms: _630  and  _633
REMARK  259  A    between atoms: _633  and  _634
REMARK  260  A    between atoms: _639  and  _641
REMARK  261  A    between atoms: _641  and  _642
REMARK  262  A    between atoms: _641  and  _644
REMARK  263  A    between atoms: _644  and  _645
REMARK  264  A    between atoms: _645  and  _646
REMARK  265  A    between atoms: _646  and  _647
REMARK  266  A    between atoms: _647  and  _648
REMARK  267  A    between atoms: _652  and  _654
REMARK  268  A    between atoms: _654  and  _655
REMARK  269  A    between atoms: _654  and  _657
REMARK  270  A    between atoms: _657  and  _658
REMARK  271  A    between atoms: _668  and  _670
REMARK  272  A    between atoms: _670  and  _671
REMARK  273  A    between atoms: _674  and  _676
REMARK  274  A    between atoms: _676  and  _677
REMARK  275  A    between atoms: _679  and  _681
REMARK  276  A    between atoms: _681  and  _682
REMARK  277  A    between atoms: _685  and  _687
REMARK  278  A    between atoms: _687  and  _688
REMARK  279  A    between atoms: _691  and  _693
REMARK  280  A    between atoms: _693  and  _694
REMARK  281  A    between atoms: _693  and  _696
REMARK  282  A    between atoms: _696  and  _697
REMARK  283  A    between atoms: _697  and  _698
REMARK  284  A    between atoms: _701  and  _703
REMARK  285  A    between atoms: _703  and  _704
REMARK  286  A    between atoms: _703  and  _706
REMARK  287  A    between atoms: _706  and  _707
REMARK  288  A    between atoms: _712  and  _713
REMARK  289  A    between atoms: _715  and  _717
REMARK  290  A    between atoms: _717  and  _718
REMARK  291  A    between atoms: _717  and  _720
REMARK  292  A    between atoms: _720  and  _721
REMARK  293  A    between atoms: _726  and  _727
REMARK  294  A    between atoms: _729  and  _731
REMARK  295  A    between atoms: _731  and  _732
REMARK  296  A    between atoms: _731  and  _734
REMARK  297  A    between atoms: _734  and  _735
REMARK  298  A    between atoms: _735  and  _736
REMARK  299  A    between atoms: _736  and  _737
REMARK  300  A    between atoms: _746  and  _748
REMARK  301  A    between atoms: _748  and  _749
REMARK  302  A    between atoms: _752  and  _754
REMARK  303  A    between atoms: _754  and  _755
REMARK  304  A    between atoms: _754  and  _757
REMARK  305  A    between atoms: _757  and  _758
REMARK  306  A    between atoms: _763  and  _764
REMARK  307  A    between atoms: _766  and  _768
REMARK  308  A    between atoms: _768  and  _769
REMARK  309  A    between atoms: _768  and  _771
REMARK  310  A    between atoms: _771  and  _772
REMARK  311  A    between atoms: _775  and  _777
REMARK  312  A    between atoms: _777  and  _778
REMARK  313  A    between atoms: _777  and  _780
REMARK  314  A    between atoms: _780  and  _781
REMARK  315  A    between atoms: _784  and  _786
REMARK  316  A    between atoms: _786  and  _787
REMARK  317  A    between atoms: _786  and  _789
REMARK  318  A    between atoms: _789  and  _790
REMARK  319  A    between atoms: _791  and  _793
REMARK  320  A    between atoms: _793  and  _794
REMARK  321  A    between atoms: _793  and  _796
REMARK  322  A    between atoms: _799  and  _801
REMARK  323  A    between atoms: _801  and  _802
REMARK  324  A    between atoms: _801  and  _804
REMARK  325  A    between atoms: _804  and  _805
REMARK  326  A    between atoms: _805  and  _806
REMARK  327  A    between atoms: _809  and  _811
REMARK  328  A    between atoms: _811  and  _812
REMARK  329  A    between atoms: _811  and  _814
REMARK  330  A    between atoms: _814  and  _815
REMARK  331  A    between atoms: _825  and  _827
REMARK  332  A    between atoms: _827  and  _828
REMARK  333  A    between atoms: _827  and  _830
REMARK  334  A    between atoms: _830  and  _831
REMARK  335  A    between atoms: _834  and  _836
REMARK  336  A    between atoms: _836  and  _837
REMARK  337  A    between atoms: _836  and  _839
REMARK  338  A    between atoms: _839  and  _840
REMARK  339  A    between atoms: _840  and  _841
REMARK  340  A    between atoms: _841  and  _842
REMARK  341  A    between atoms: _851  and  _853
REMARK  342  A    between atoms: _853  and  _854
REMARK  343  A    between atoms: _853  and  _856
REMARK  344  A    between atoms: _856  and  _857
REMARK  345  A    between atoms: _862  and  _863
REMARK                            x       y       z     vdW  Elec       q    Type
REMARK                         _______ _______ _______ _____ _____    ______ ____
ROOT
ATOM      1  O   HOH     1      46.335  54.908  -1.944  0.00  0.00    +0.000 OA
ENDROOT
TORSDOF 0
REMARK  Name = ../refined-set-2016/1fzj/1fzj_pocket.pdb
REMARK  345 active torsions:
REMARK  status: ('A' for Active; 'I' for Inactive)
REMARK    1  A    between atoms: _1  and  _3
REMARK    2  A    between atoms: _3  and  _4
REMARK    3  A    between atoms: _3  and  _6
REMARK    4  A    between atoms: _6  and  _7
REMARK    5  A    between atoms: _10  and  _12
REMARK    6  A    between atoms: _12  and  _13
REMARK    7  A    between atoms: _12  and  _15
REMARK    8  A    between atoms: _15  and  _16
REMARK    9  A    between atoms: _16  and  _17
REMARK   10  A    between atoms: _17  and  _18
REMARK   11  A    between atoms: _27  and  _29
REMARK   12  A    between atoms: _29  and  _30
REMARK   13  A    between atoms: _29  and  _32
REMARK   14  A    between atoms: _32  and  _33
REMARK   15  A    between atoms: _38  and  _39
REMARK   16  A    between atoms: _41  and  _43
REMARK   17  A    between atoms: _43  and  _44
REMARK   18  A    between atoms: _43  and  _46
REMARK   19  A    between atoms: _46  and  _47
REMARK   20  A    between atoms: _53  and  _55
REMARK   21  A    between atoms: _55  and  _56
REMARK   22  A    between atoms: _55  and  _58
REMARK   23  A    between atoms: _61  and  _63
REMARK   24  A    between atoms: _63  and  _64
REMARK   25  A    between atoms: _63  and  _66
REMARK   26  A    between atoms: _66  and  _67
REMARK   27  A    between atoms: _70  and  _72
REMARK   28  A    between atoms: _72  and  _73
REMARK   29  A    between atoms: _72  and  _75
REMARK   30  A    between atoms: _75  and  _76
REMARK   31  A    between atoms: _81  and  _82
REMARK   32  A    between atoms: _84  and  _86
REMARK   33  A    between atoms: _86  and  _87
REMARK   34  A    between atoms: _86  and  _89
REMARK   35  A    between atoms: _89  and  _90
REMARK   36  A    between atoms: _90  and  _91
REMARK   37  A    between atoms: _93  and  _95
REMARK   38  A    between atoms: _95  and  _96
REMARK   39  A    between atoms: _95  and  _98
REMARK   40  A    between atoms: _98  and  _99
REMARK   41  A    between atoms: _99  and  _100
REMARK   42  A    between atoms: _103  and  _105
REMARK   43  A    between atoms: _105  and  _106
REMARK   44  A    between atoms: _105  and  _108
REMARK   45  A    between atoms: _111  and  _113
REMARK   46  A    between atoms: _113  and  _114
REMARK   47  A    between atoms: _113  and  _116
REMARK   48  A    between atoms: _119  and  _121
REMARK   49  A    between atoms: _121  and  _122
REMARK   50  A    between atoms: _121  and  _124
REMARK   51  A    between atoms: _124  and  _125
REMARK   52  A    between atoms: _131  and  _133
REMARK   53  A    between atoms: _133  and  _134
REMARK   54  A    between atoms: _133  and  _136
REMARK   55  A    between atoms: _139  and  _141
REMARK   56  A    between atoms: _141  and  _142
REMARK   57  A    between atoms: _141  and  _144
REMARK   58  A    between atoms: _144  and  _145
REMARK   59  A    between atoms: _150  and  _151
REMARK   60  A    between atoms: _153  and  _155
REMARK   61  A    between atoms: _155  and  _156
REMARK   62  A    between atoms: _155  and  _158
REMARK   63  A    between atoms: _158  and  _159
REMARK   64  A    between atoms: _159  and  _160
REMARK   65  A    between atoms: _162  and  _164
REMARK   66  A    between atoms: _164  and  _165
REMARK   67  A    between atoms: _164  and  _167
REMARK   68  A    between atoms: _167  and  _168
REMARK   69  A    between atoms: _168  and  _169
REMARK   70  A    between atoms: _172  and  _174
REMARK   71  A    between atoms: _174  and  _175
REMARK   72  A    between atoms: _174  and  _177
REMARK   73  A    between atoms: _177  and  _178
REMARK   74  A    between atoms: _178  and  _179
REMARK   75  A    between atoms: _182  and  _184
REMARK   76  A    between atoms: _184  and  _185
REMARK   77  A    between atoms: _184  and  _187
REMARK   78  A    between atoms: _187  and  _188
REMARK   79  A    between atoms: _193  and  _194
REMARK   80  A    between atoms: _196  and  _198
REMARK   81  A    between atoms: _198  and  _199
REMARK   82  A    between atoms: _198  and  _201
REMARK   83  A    between atoms: _201  and  _202
REMARK   84  A    between atoms: _212  and  _214
REMARK   85  A    between atoms: _214  and  _215
REMARK   86  A    between atoms: _214  and  _217
REMARK   87  A    between atoms: _217  and  _218
REMARK   88  A    between atoms: _218  and  _219
REMARK   89  A    between atoms: _222  and  _224
REMARK   90  A    between atoms: _224  and  _225
REMARK   91  A    between atoms: _224  and  _227
REMARK   92  A    between atoms: _227  and  _228
REMARK   93  A    between atoms: _228  and  _229
REMARK   94  A    between atoms: _229  and  _230
REMARK   95  A    between atoms: _239  and  _241
REMARK   96  A    between atoms: _241  and  _242
REMARK   97  A    between atoms: _241  and  _244
REMARK   98  A    between atoms: _244  and  _245
REMARK   99  A    between atoms: _245  and  _246
REMARK  100  A    between atoms: _249  and  _251
REMARK  101  A    between atoms: _251  and  _252
REMARK  102  A    between atoms: _251  and  _254
REMARK  103  A    between atoms: _254  and  _255
REMARK  104  A    between atoms: _258  and  _260
REMARK  105  A    between atoms: _260  and  _261
REMARK  106  A    between atoms: _260  and  _263
REMARK  107  A    between atoms: _263  and  _264
REMARK  108  A    between atoms: _264  and  _265
REMARK  109  A    between atoms: _270  and  _272
REMARK  110  A    between atoms: _272  and  _273
REMARK  111  A    between atoms: _272  and  _275
REMARK  112  A    between atoms: _275  and  _276
REMARK  113  A    between atoms: _276  and  _277
REMARK  114  A    between atoms: _277  and  _278
REMARK  115  A    between atoms: _278  and  _279
REMARK  116  A    between atoms: _283  and  _285
REMARK  117  A    between atoms: _285  and  _286
REMARK  118  A    between atoms: _289  and  _291
REMARK  119  A    between atoms: _291  and  _292
REMARK  120  A    between atoms: _294  and  _296
REMARK  121  A    between atoms: _296  and  _297
REMARK  122  A    between atoms: _296  and  _299
REMARK  123  A    between atoms: _299  and  _300
REMARK  124  A    between atoms: _305  and  _307
REMARK  125  A    between atoms: _307  and  _308
REMARK  126  A    between atoms: _307  and  _310
REMARK  127  A    between atoms: _310  and  _311
REMARK  128  A    between atoms: _311  and  _312
REMARK  129  A    between atoms: _315  and  _317
REMARK  130  A    between atoms: _317  and  _318
REMARK  131  A    between atoms: _317  and  _320
REMARK  132  A    between atoms: _320  and  _321
REMARK  133  A    between atoms: _323  and  _325
REMARK  134  A    between atoms: _325  and  _326
REMARK  135  A    between atoms: _325  and  _328
REMARK  136  A    between atoms: _328  and  _329
REMARK  137  A    between atoms: _335  and  _337
REMARK  138  A    between atoms: _337  and  _338
REMARK  139  A    between atoms: _337  and  _340
REMARK  140  A    between atoms: _343  and  _345
REMARK  141  A    between atoms: _345  and  _346
REMARK  142  A    between atoms: _345  and  _348
REMARK  143  A    between atoms: _348  and  _349
REMARK  144  A    between atoms: _352  and  _354
REMARK  145  A    between atoms: _354  and  _355
REMARK  146  A    between atoms: _354  and  _357
REMARK  147  A    between atoms: _357  and  _358
REMARK  148  A    between atoms: _361  and  _363
REMARK  149  A    between atoms: _363  and  _364
REMARK  150  A    between atoms: _363  and  _366
REMARK  151  A    between atoms: _366  and  _367
REMARK  152  A    between atoms: _370  and  _372
REMARK  153  A    between atoms: _372  and  _373
REMARK  154  A    between atoms: _372  and  _375
REMARK  155  A    between atoms: _375  and  _376
REMARK  156  A    between atoms: _379  and  _381
REMARK  157  A    between atoms: _381  and  _382
REMARK  158  A    between atoms: _381  and  _384
REMARK  159  A    between atoms: _384  and  _385
REMARK  160  A    between atoms: _390  and  _391
REMARK  161  A    between atoms: _393  and  _395
REMARK  162  A    between atoms: _395  and  _396
REMARK  163  A    between atoms: _395  and  _398
REMARK  164  A    between atoms: _398  and  _399
REMARK  165  A    between atoms: _404  and  _405
REMARK  166  A    between atoms: _407  and  _409
REMARK  167  A    between atoms: _409  and  _410
REMARK  168  A    between atoms: _409  and  _412
REMARK  169  A    between atoms: _412  and  _413
REMARK  170  A    between atoms: _416  and  _418
REMARK  171  A    between atoms: _418  and  _419
REMARK  172  A    between atoms: _418  and  _421
REMARK  173  A    between atoms: _421  and  _422
REMARK  174  A    between atoms: _422  and  _423
REMARK  175  A    between atoms: _428  and  _430
REMARK  176  A    between atoms: _430  and  _431
REMARK  177  A    between atoms: _430  and  _433
REMARK  178  A    between atoms: _436  and  _438
REMARK  179  A    between atoms: _438  and  _439
REMARK  180  A    between atoms: _438  and  _441
REMARK  181  A    between atoms: _441  and  _442
REMARK  182  A    between atoms: _445  and  _447
REMARK  183  A    between atoms: _447  and  _448
REMARK  184  A    between atoms: _447  and  _450
REMARK  185  A    between atoms: _450  and  _451
REMARK  186  A    between atoms: _453  and  _455
REMARK  187  A    between atoms: _455  and  _456
REMARK  188  A    between atoms: _458  and  _460
REMARK  189  A    between atoms: _460  and  _461
REMARK  190  A    between atoms: _460  and  _463
REMARK  191  A    between atoms: _463  and  _464
REMARK  192  A    between atoms: _464  and  _790
REMARK  193  A    between atoms: _465  and  _467
REMARK  194  A    between atoms: _467  and  _468
REMARK  195  A    between atoms: _467  and  _470
REMARK  196  A    between atoms: _470  and  _471
REMARK  197  A    between atoms: _476  and  _477
REMARK  198  A    between atoms: _479  and  _481
REMARK  199  A    between atoms: _481  and  _482
REMARK  200  A    between atoms: _481  and  _484
REMARK  201  A    between atoms: _484  and  _485
REMARK  202  A    between atoms: _485  and  _486
REMARK  203  A    between atoms: _491  and  _493
REMARK  204  A    between atoms: _493  and  _494
REMARK  205  A    between atoms: _493  and  _496
REMARK  206  A    between atoms: _496  and  _497
REMARK  207  A    between atoms: _497  and  _498
REMARK  208  A    between atoms: _503  and  _505
REMARK  209  A    between atoms: _505  and  _506
REMARK  210  A    between atoms: _505  and  _508
REMARK  211  A    between atoms: _508  and  _509
REMARK  212  A    between atoms: _514  and  _515
REMARK  213  A    between atoms: _517  and  _519
REMARK  214  A    between atoms: _519  and  _520
REMARK  215  A    between atoms: _523  and  _525
REMARK  216  A    between atoms: _525  and  _526
REMARK  217  A    between atoms: _525  and  _528
REMARK  218  A    between atoms: _528  and  _529
REMARK  219  A    between atoms: _534  and  _535
REMARK  220  A    between atoms: _537  and  _539
REMARK  221  A    between atoms: _539  and  _540
REMARK  222  A    between atoms: _539  and  _542
REMARK  223  A    between atoms: _542  and  _543
REMARK  224  A    between atoms: _548  and  _549
REMARK  225  A    between atoms: _551  and  _553
REMARK  226  A    between atoms: _553  and  _554
REMARK  227  A    between atoms: _553  and  _556
REMARK  228  A    between atoms: _556  and  _557
REMARK  229  A    between atoms: _560  and  _562
REMARK  230  A    between atoms: _562  and  _563
REMARK  231  A    between atoms: _562  and  _565
REMARK  232  A    between atoms: _565  and  _566
REMARK  233  A    between atoms: _576  and  _578
REMARK  234  A    between atoms: _578  and  _579
REMARK  235  A    between atoms: _582  and  _584
REMARK  236  A    between atoms: _584  and  _585
REMARK  237  A    between atoms: _588  and  _590
REMARK  238  A    between atoms: _590  and  _591
REMARK  239  A    between atoms: _590  and  _593
REMARK  240  A    between atoms: _593  and  _594
REMARK  241  A    between atoms: _597  and  _599
REMARK  242  A    between atoms: _599  and  _600
REMARK  243  A    between atoms: _599  and  _602
REMARK  244  A    between atoms: _602  and  _603
REMARK  245  A    between atoms: _606  and  _608
REMARK  246  A    between atoms: _608  and  _609
REMARK  247  A    between atoms: _608  and  _611
REMARK  248  A    between atoms: _611  and  _612
REMARK  249  A    between atoms: _615  and  _617
REMARK  250  A    between atoms: _617  and  _618
REMARK  251  A    between atoms: _617  and  _620
REMARK  252  A    between atoms: _620  and  _621
REMARK  253  A    between atoms: _621  and  _622
REMARK  254  A    between atoms: _622  and  _623
REMARK  255  A    between atoms: _623  and  _624
REMARK  256  A    between atoms: _628  and  _630
REMARK  257  A    between atoms: _630  and  _631
REMARK  258  A    between atoms: _630  and  _633
REMARK  259  A    between atoms: _633  and  _634
REMARK  260  A    between atoms: _639  and  _641
REMARK  261  A    between atoms: _641  and  _642
REMARK  262  A    between atoms: _641  and  _644
REMARK  263  A    between atoms: _644  and  _645
REMARK  264  A    between atoms: _645  and  _646
REMARK  265  A    between atoms: _646  and  _647
REMARK  266  A    between atoms: _647  and  _648
REMARK  267  A    between atoms: _652  and  _654
REMARK  268  A    between atoms: _654  and  _655
REMARK  269  A    between atoms: _654  and  _657
REMARK  270  A    between atoms: _657  and  _658
REMARK  271  A    between atoms: _668  and  _670
REMARK  272  A    between atoms: _670  and  _671
REMARK  273  A    between atoms: _674  and  _676
REMARK  274  A    between atoms: _676  and  _677
REMARK  275  A    between atoms: _679  and  _681
REMARK  276  A    between atoms: _681  and  _682
REMARK  277  A    between atoms: _685  and  _687
REMARK  278  A    between atoms: _687  and  _688
REMARK  279  A    between atoms: _691  and  _693
REMARK  280  A    between atoms: _693  and  _694
REMARK  281  A    between atoms: _693  and  _696
REMARK  282  A    between atoms: _696  and  _697
REMARK  283  A    between atoms: _697  and  _698
REMARK  284  A    between atoms: _701  and  _703
REMARK  285  A    between atoms: _703  and  _704
REMARK  286  A    between atoms: _703  and  _706
REMARK  287  A    between atoms: _706  and  _707
REMARK  288  A    between atoms: _712  and  _713
REMARK  289  A    between atoms: _715  and  _717
REMARK  290  A    between atoms: _717  and  _718
REMARK  291  A    between atoms: _717  and  _720
REMARK  292  A    between atoms: _720  and  _721
REMARK  293  A    between atoms: _726  and  _727
REMARK  294  A    between atoms: _729  and  _731
REMARK  295  A    between atoms: _731  and  _732
REMARK  296  A    between atoms: _731  and  _734
REMARK  297  A    between atoms: _734  and  _735
REMARK  298  A    between atoms: _735  and  _736
REMARK  299  A    between atoms: _736  and  _737
REMARK  300  A    between atoms: _746  and  _748
REMARK  301  A    between atoms: _748  and  _749
REMARK  302  A    between atoms: _752  and  _754
REMARK  303  A    between atoms: _754  and  _755
REMARK  304  A    between atoms: _754  and  _757
REMARK  305  A    between atoms: _757  and  _758
REMARK  306  A    between atoms: _763  and  _764
REMARK  307  A    between atoms: _766  and  _768
REMARK  308  A    between atoms: _768  and  _769
REMARK  309  A    between atoms: _768  and  _771
REMARK  310  A    between atoms: _771  and  _772
REMARK  311  A    between atoms: _775  and  _777
REMARK  312  A    between atoms: _777  and  _778
REMARK  313  A    between atoms: _777  and  _780
REMARK  314  A    between atoms: _780  and  _781
REMARK  315  A    between atoms: _784  and  _786
REMARK  316  A    between atoms: _786  and  _787
REMARK  317  A    between atoms: _786  and  _789
REMARK  318  A    between atoms: _789  and  _790
REMARK  319  A    between atoms: _791  and  _793
REMARK  320  A    between atoms: _793  and  _794
REMARK  321  A    between atoms: _793  and  _796
REMARK  322  A    between atoms: _799  and  _801
REMARK  323  A    between atoms: _801  and  _802
REMARK  324  A    between atoms: _801  and  _804
REMARK  325  A    between atoms: _804  and  _805
REMARK  326  A    between atoms: _805  and  _806
REMARK  327  A    between atoms: _809  and  _811
REMARK  328  A    between atoms: _811  and  _812
REMARK  329  A    between atoms: _811  and  _814
REMARK  330  A    between atoms: _814  and  _815
REMARK  331  A    between atoms: _825  and  _827
REMARK  332  A    between atoms: _827  and  _828
REMARK  333  A    between atoms: _827  and  _830
REMARK  334  A    between atoms: _830  and  _831
REMARK  335  A    between atoms: _834  and  _836
REMARK  336  A    between atoms: _836  and  _837
REMARK  337  A    between atoms: _836  and  _839
REMARK  338  A    between atoms: _839  and  _840
REMARK  339  A    between atoms: _840  and  _841
REMARK  340  A    between atoms: _841  and  _842
REMARK  341  A    between atoms: _851  and  _853
REMARK  342  A    between atoms: _853  and  _854
REMARK  343  A    between atoms: _853  and  _856
REMARK  344  A    between atoms: _856  and  _857
REMARK  345  A    between atoms: _862  and  _863
REMARK                            x       y       z     vdW  Elec       q    Type
REMARK                         _______ _______ _______ _____ _____    ______ ____
ROOT
ATOM      1  O   HOH     1      43.040  56.509   0.216  0.00  0.00    +0.000 OA
ENDROOT
TORSDOF 0
REMARK  Name = ../refined-set-2016/1fzj/1fzj_pocket.pdb
REMARK  345 active torsions:
REMARK  status: ('A' for Active; 'I' for Inactive)
REMARK    1  A    between atoms: _1  and  _3
REMARK    2  A    between atoms: _3  and  _4
REMARK    3  A    between atoms: _3  and  _6
REMARK    4  A    between atoms: _6  and  _7
REMARK    5  A    between atoms: _10  and  _12
REMARK    6  A    between atoms: _12  and  _13
REMARK    7  A    between atoms: _12  and  _15
REMARK    8  A    between atoms: _15  and  _16
REMARK    9  A    between atoms: _16  and  _17
REMARK   10  A    between atoms: _17  and  _18
REMARK   11  A    between atoms: _27  and  _29
REMARK   12  A    between atoms: _29  and  _30
REMARK   13  A    between atoms: _29  and  _32
REMARK   14  A    between atoms: _32  and  _33
REMARK   15  A    between atoms: _38  and  _39
REMARK   16  A    between atoms: _41  and  _43
REMARK   17  A    between atoms: _43  and  _44
REMARK   18  A    between atoms: _43  and  _46
REMARK   19  A    between atoms: _46  and  _47
REMARK   20  A    between atoms: _53  and  _55
REMARK   21  A    between atoms: _55  and  _56
REMARK   22  A    between atoms: _55  and  _58
REMARK   23  A    between atoms: _61  and  _63
REMARK   24  A    between atoms: _63  and  _64
REMARK   25  A    between atoms: _63  and  _66
REMARK   26  A    between atoms: _66  and  _67
REMARK   27  A    between atoms: _70  and  _72
REMARK   28  A    between atoms: _72  and  _73
REMARK   29  A    between atoms: _72  and  _75
REMARK   30  A    between atoms: _75  and  _76
REMARK   31  A    between atoms: _81  and  _82
REMARK   32  A    between atoms: _84  and  _86
REMARK   33  A    between atoms: _86  and  _87
REMARK   34  A    between atoms: _86  and  _89
REMARK   35  A    between atoms: _89  and  _90
REMARK   36  A    between atoms: _90  and  _91
REMARK   37  A    between atoms: _93  and  _95
REMARK   38  A    between atoms: _95  and  _96
REMARK   39  A    between atoms: _95  and  _98
REMARK   40  A    between atoms: _98  and  _99
REMARK   41  A    between atoms: _99  and  _100
REMARK   42  A    between atoms: _103  and  _105
REMARK   43  A    between atoms: _105  and  _106
REMARK   44  A    between atoms: _105  and  _108
REMARK   45  A    between atoms: _111  and  _113
REMARK   46  A    between atoms: _113  and  _114
REMARK   47  A    between atoms: _113  and  _116
REMARK   48  A    between atoms: _119  and  _121
REMARK   49  A    between atoms: _121  and  _122
REMARK   50  A    between atoms: _121  and  _124
REMARK   51  A    between atoms: _124  and  _125
REMARK   52  A    between atoms: _131  and  _133
REMARK   53  A    between atoms: _133  and  _134
REMARK   54  A    between atoms: _133  and  _136
REMARK   55  A    between atoms: _139  and  _141
REMARK   56  A    between atoms: _141  and  _142
REMARK   57  A    between atoms: _141  and  _144
REMARK   58  A    between atoms: _144  and  _145
REMARK   59  A    between atoms: _150  and  _151
REMARK   60  A    between atoms: _153  and  _155
REMARK   61  A    between atoms: _155  and  _156
REMARK   62  A    between atoms: _155  and  _158
REMARK   63  A    between atoms: _158  and  _159
REMARK   64  A    between atoms: _159  and  _160
REMARK   65  A    between atoms: _162  and  _164
REMARK   66  A    between atoms: _164  and  _165
REMARK   67  A    between atoms: _164  and  _167
REMARK   68  A    between atoms: _167  and  _168
REMARK   69  A    between atoms: _168  and  _169
REMARK   70  A    between atoms: _172  and  _174
REMARK   71  A    between atoms: _174  and  _175
REMARK   72  A    between atoms: _174  and  _177
REMARK   73  A    between atoms: _177  and  _178
REMARK   74  A    between atoms: _178  and  _179
REMARK   75  A    between atoms: _182  and  _184
REMARK   76  A    between atoms: _184  and  _185
REMARK   77  A    between atoms: _184  and  _187
REMARK   78  A    between atoms: _187  and  _188
REMARK   79  A    between atoms: _193  and  _194
REMARK   80  A    between atoms: _196  and  _198
REMARK   81  A    between atoms: _198  and  _199
REMARK   82  A    between atoms: _198  and  _201
REMARK   83  A    between atoms: _201  and  _202
REMARK   84  A    between atoms: _212  and  _214
REMARK   85  A    between atoms: _214  and  _215
REMARK   86  A    between atoms: _214  and  _217
REMARK   87  A    between atoms: _217  and  _218
REMARK   88  A    between atoms: _218  and  _219
REMARK   89  A    between atoms: _222  and  _224
REMARK   90  A    between atoms: _224  and  _225
REMARK   91  A    between atoms: _224  and  _227
REMARK   92  A    between atoms: _227  and  _228
REMARK   93  A    between atoms: _228  and  _229
REMARK   94  A    between atoms: _229  and  _230
REMARK   95  A    between atoms: _239  and  _241
REMARK   96  A    between atoms: _241  and  _242
REMARK   97  A    between atoms: _241  and  _244
REMARK   98  A    between atoms: _244  and  _245
REMARK   99  A    between atoms: _245  and  _246
REMARK  100  A    between atoms: _249  and  _251
REMARK  101  A    between atoms: _251  and  _252
REMARK  102  A    between atoms: _251  and  _254
REMARK  103  A    between atoms: _254  and  _255
REMARK  104  A    between atoms: _258  and  _260
REMARK  105  A    between atoms: _260  and  _261
REMARK  106  A    between atoms: _260  and  _263
REMARK  107  A    between atoms: _263  and  _264
REMARK  108  A    between atoms: _264  and  _265
REMARK  109  A    between atoms: _270  and  _272
REMARK  110  A    between atoms: _272  and  _273
REMARK  111  A    between atoms: _272  and  _275
REMARK  112  A    between atoms: _275  and  _276
REMARK  113  A    between atoms: _276  and  _277
REMARK  114  A    between atoms: _277  and  _278
REMARK  115  A    between atoms: _278  and  _279
REMARK  116  A    between atoms: _283  and  _285
REMARK  117  A    between atoms: _285  and  _286
REMARK  118  A    between atoms: _289  and  _291
REMARK  119  A    between atoms: _291  and  _292
REMARK  120  A    between atoms: _294  and  _296
REMARK  121  A    between atoms: _296  and  _297
REMARK  122  A    between atoms: _296  and  _299
REMARK  123  A    between atoms: _299  and  _300
REMARK  124  A    between atoms: _305  and  _307
REMARK  125  A    between atoms: _307  and  _308
REMARK  126  A    between atoms: _307  and  _310
REMARK  127  A    between atoms: _310  and  _311
REMARK  128  A    between atoms: _311  and  _312
REMARK  129  A    between atoms: _315  and  _317
REMARK  130  A    between atoms: _317  and  _318
REMARK  131  A    between atoms: _317  and  _320
REMARK  132  A    between atoms: _320  and  _321
REMARK  133  A    between atoms: _323  and  _325
REMARK  134  A    between atoms: _325  and  _326
REMARK  135  A    between atoms: _325  and  _328
REMARK  136  A    between atoms: _328  and  _329
REMARK  137  A    between atoms: _335  and  _337
REMARK  138  A    between atoms: _337  and  _338
REMARK  139  A    between atoms: _337  and  _340
REMARK  140  A    between atoms: _343  and  _345
REMARK  141  A    between atoms: _345  and  _346
REMARK  142  A    between atoms: _345  and  _348
REMARK  143  A    between atoms: _348  and  _349
REMARK  144  A    between atoms: _352  and  _354
REMARK  145  A    between atoms: _354  and  _355
REMARK  146  A    between atoms: _354  and  _357
REMARK  147  A    between atoms: _357  and  _358
REMARK  148  A    between atoms: _361  and  _363
REMARK  149  A    between atoms: _363  and  _364
REMARK  150  A    between atoms: _363  and  _366
REMARK  151  A    between atoms: _366  and  _367
REMARK  152  A    between atoms: _370  and  _372
REMARK  153  A    between atoms: _372  and  _373
REMARK  154  A    between atoms: _372  and  _375
REMARK  155  A    between atoms: _375  and  _376
REMARK  156  A    between atoms: _379  and  _381
REMARK  157  A    between atoms: _381  and  _382
REMARK  158  A    between atoms: _381  and  _384
REMARK  159  A    between atoms: _384  and  _385
REMARK  160  A    between atoms: _390  and  _391
REMARK  161  A    between atoms: _393  and  _395
REMARK  162  A    between atoms: _395  and  _396
REMARK  163  A    between atoms: _395  and  _398
REMARK  164  A    between atoms: _398  and  _399
REMARK  165  A    between atoms: _404  and  _405
REMARK  166  A    between atoms: _407  and  _409
REMARK  167  A    between atoms: _409  and  _410
REMARK  168  A    between atoms: _409  and  _412
REMARK  169  A    between atoms: _412  and  _413
REMARK  170  A    between atoms: _416  and  _418
REMARK  171  A    between atoms: _418  and  _419
REMARK  172  A    between atoms: _418  and  _421
REMARK  173  A    between atoms: _421  and  _422
REMARK  174  A    between atoms: _422  and  _423
REMARK  175  A    between atoms: _428  and  _430
REMARK  176  A    between atoms: _430  and  _431
REMARK  177  A    between atoms: _430  and  _433
REMARK  178  A    between atoms: _436  and  _438
REMARK  179  A    between atoms: _438  and  _439
REMARK  180  A    between atoms: _438  and  _441
REMARK  181  A    between atoms: _441  and  _442
REMARK  182  A    between atoms: _445  and  _447
REMARK  183  A    between atoms: _447  and  _448
REMARK  184  A    between atoms: _447  and  _450
REMARK  185  A    between atoms: _450  and  _451
REMARK  186  A    between atoms: _453  and  _455
REMARK  187  A    between atoms: _455  and  _456
REMARK  188  A    between atoms: _458  and  _460
REMARK  189  A    between atoms: _460  and  _461
REMARK  190  A    between atoms: _460  and  _463
REMARK  191  A    between atoms: _463  and  _464
REMARK  192  A    between atoms: _464  and  _790
REMARK  193  A    between atoms: _465  and  _467
REMARK  194  A    between atoms: _467  and  _468
REMARK  195  A    between atoms: _467  and  _470
REMARK  196  A    between atoms: _470  and  _471
REMARK  197  A    between atoms: _476  and  _477
REMARK  198  A    between atoms: _479  and  _481
REMARK  199  A    between atoms: _481  and  _482
REMARK  200  A    between atoms: _481  and  _484
REMARK  201  A    between atoms: _484  and  _485
REMARK  202  A    between atoms: _485  and  _486
REMARK  203  A    between atoms: _491  and  _493
REMARK  204  A    between atoms: _493  and  _494
REMARK  205  A    between atoms: _493  and  _496
REMARK  206  A    between atoms: _496  and  _497
REMARK  207  A    between atoms: _497  and  _498
REMARK  208  A    between atoms: _503  and  _505
REMARK  209  A    between atoms: _505  and  _506
REMARK  210  A    between atoms: _505  and  _508
REMARK  211  A    between atoms: _508  and  _509
REMARK  212  A    between atoms: _514  and  _515
REMARK  213  A    between atoms: _517  and  _519
REMARK  214  A    between atoms: _519  and  _520
REMARK  215  A    between atoms: _523  and  _525
REMARK  216  A    between atoms: _525  and  _526
REMARK  217  A    between atoms: _525  and  _528
REMARK  218  A    between atoms: _528  and  _529
REMARK  219  A    between atoms: _534  and  _535
REMARK  220  A    between atoms: _537  and  _539
REMARK  221  A    between atoms: _539  and  _540
REMARK  222  A    between atoms: _539  and  _542
REMARK  223  A    between atoms: _542  and  _543
REMARK  224  A    between atoms: _548  and  _549
REMARK  225  A    between atoms: _551  and  _553
REMARK  226  A    between atoms: _553  and  _554
REMARK  227  A    between atoms: _553  and  _556
REMARK  228  A    between atoms: _556  and  _557
REMARK  229  A    between atoms: _560  and  _562
REMARK  230  A    between atoms: _562  and  _563
REMARK  231  A    between atoms: _562  and  _565
REMARK  232  A    between atoms: _565  and  _566
REMARK  233  A    between atoms: _576  and  _578
REMARK  234  A    between atoms: _578  and  _579
REMARK  235  A    between atoms: _582  and  _584
REMARK  236  A    between atoms: _584  and  _585
REMARK  237  A    between atoms: _588  and  _590
REMARK  238  A    between atoms: _590  and  _591
REMARK  239  A    between atoms: _590  and  _593
REMARK  240  A    between atoms: _593  and  _594
REMARK  241  A    between atoms: _597  and  _599
REMARK  242  A    between atoms: _599  and  _600
REMARK  243  A    between atoms: _599  and  _602
REMARK  244  A    between atoms: _602  and  _603
REMARK  245  A    between atoms: _606  and  _608
REMARK  246  A    between atoms: _608  and  _609
REMARK  247  A    between atoms: _608  and  _611
REMARK  248  A    between atoms: _611  and  _612
REMARK  249  A    between atoms: _615  and  _617
REMARK  250  A    between atoms: _617  and  _618
REMARK  251  A    between atoms: _617  and  _620
REMARK  252  A    between atoms: _620  and  _621
REMARK  253  A    between atoms: _621  and  _622
REMARK  254  A    between atoms: _622  and  _623
REMARK  255  A    between atoms: _623  and  _624
REMARK  256  A    between atoms: _628  and  _630
REMARK  257  A    between atoms: _630  and  _631
REMARK  258  A    between atoms: _630  and  _633
REMARK  259  A    between atoms: _633  and  _634
REMARK  260  A    between atoms: _639  and  _641
REMARK  261  A    between atoms: _641  and  _642
REMARK  262  A    between atoms: _641  and  _644
REMARK  263  A    between atoms: _644  and  _645
REMARK  264  A    between atoms: _645  and  _646
REMARK  265  A    between atoms: _646  and  _647
REMARK  266  A    between atoms: _647  and  _648
REMARK  267  A    between atoms: _652  and  _654
REMARK  268  A    between atoms: _654  and  _655
REMARK  269  A    between atoms: _654  and  _657
REMARK  270  A    between atoms: _657  and  _658
REMARK  271  A    between atoms: _668  and  _670
REMARK  272  A    between atoms: _670  and  _671
REMARK  273  A    between atoms: _674  and  _676
REMARK  274  A    between atoms: _676  and  _677
REMARK  275  A    between atoms: _679  and  _681
REMARK  276  A    between atoms: _681  and  _682
REMARK  277  A    between atoms: _685  and  _687
REMARK  278  A    between atoms: _687  and  _688
REMARK  279  A    between atoms: _691  and  _693
REMARK  280  A    between atoms: _693  and  _694
REMARK  281  A    between atoms: _693  and  _696
REMARK  282  A    between atoms: _696  and  _697
REMARK  283  A    between atoms: _697  and  _698
REMARK  284  A    between atoms: _701  and  _703
REMARK  285  A    between atoms: _703  and  _704
REMARK  286  A    between atoms: _703  and  _706
REMARK  287  A    between atoms: _706  and  _707
REMARK  288  A    between atoms: _712  and  _713
REMARK  289  A    between atoms: _715  and  _717
REMARK  290  A    between atoms: _717  and  _718
REMARK  291  A    between atoms: _717  and  _720
REMARK  292  A    between atoms: _720  and  _721
REMARK  293  A    between atoms: _726  and  _727
REMARK  294  A    between atoms: _729  and  _731
REMARK  295  A    between atoms: _731  and  _732
REMARK  296  A    between atoms: _731  and  _734
REMARK  297  A    between atoms: _734  and  _735
REMARK  298  A    between atoms: _735  and  _736
REMARK  299  A    between atoms: _736  and  _737
REMARK  300  A    between atoms: _746  and  _748
REMARK  301  A    between atoms: _748  and  _749
REMARK  302  A    between atoms: _752  and  _754
REMARK  303  A    between atoms: _754  and  _755
REMARK  304  A    between atoms: _754  and  _757
REMARK  305  A    between atoms: _757  and  _758
REMARK  306  A    between atoms: _763  and  _764
REMARK  307  A    between atoms: _766  and  _768
REMARK  308  A    between atoms: _768  and  _769
REMARK  309  A    between atoms: _768  and  _771
REMARK  310  A    between atoms: _771  and  _772
REMARK  311  A    between atoms: _775  and  _777
REMARK  312  A    between atoms: _777  and  _778
REMARK  313  A    between atoms: _777  and  _780
REMARK  314  A    between atoms: _780  and  _781
REMARK  315  A    between atoms: _784  and  _786
REMARK  316  A    between atoms: _786  and  _787
REMARK  317  A    between atoms: _786  and  _789
REMARK  318  A    between atoms: _789  and  _790
REMARK  319  A    between atoms: _791  and  _793
REMARK  320  A    between atoms: _793  and  _794
REMARK  321  A    between atoms: _793  and  _796
REMARK  322  A    between atoms: _799  and  _801
REMARK  323  A    between atoms: _801  and  _802
REMARK  324  A    between atoms: _801  and  _804
REMARK  325  A    between atoms: _804  and  _805
REMARK  326  A    between atoms: _805  and  _806
REMARK  327  A    between atoms: _809  and  _811
REMARK  328  A    between atoms: _811  and  _812
REMARK  329  A    between atoms: _811  and  _814
REMARK  330  A    between atoms: _814  and  _815
REMARK  331  A    between atoms: _825  and  _827
REMARK  332  A    between atoms: _827  and  _828
REMARK  333  A    between atoms: _827  and  _830
REMARK  334  A    between atoms: _830  and  _831
REMARK  335  A    between atoms: _834  and  _836
REMARK  336  A    between atoms: _836  and  _837
REMARK  337  A    between atoms: _836  and  _839
REMARK  338  A    between atoms: _839  and  _840
REMARK  339  A    between atoms: _840  and  _841
REMARK  340  A    between atoms: _841  and  _842
REMARK  341  A    between atoms: _851  and  _853
REMARK  342  A    between atoms: _853  and  _854
REMARK  343  A    between atoms: _853  and  _856
REMARK  344  A    between atoms: _856  and  _857
REMARK  345  A    between atoms: _862  and  _863
REMARK                            x       y       z     vdW  Elec       q    Type
REMARK                         _______ _______ _______ _____ _____    ______ ____
ROOT
ATOM      1  O   HOH     1      37.270  62.451  -4.473  0.00  0.00    +0.000 OA
ENDROOT
TORSDOF 0
REMARK  Name = ../refined-set-2016/1fzj/1fzj_pocket.pdb
REMARK  345 active torsions:
REMARK  status: ('A' for Active; 'I' for Inactive)
REMARK    1  A    between atoms: _1  and  _3
REMARK    2  A    between atoms: _3  and  _4
REMARK    3  A    between atoms: _3  and  _6
REMARK    4  A    between atoms: _6  and  _7
REMARK    5  A    between atoms: _10  and  _12
REMARK    6  A    between atoms: _12  and  _13
REMARK    7  A    between atoms: _12  and  _15
REMARK    8  A    between atoms: _15  and  _16
REMARK    9  A    between atoms: _16  and  _17
REMARK   10  A    between atoms: _17  and  _18
REMARK   11  A    between atoms: _27  and  _29
REMARK   12  A    between atoms: _29  and  _30
REMARK   13  A    between atoms: _29  and  _32
REMARK   14  A    between atoms: _32  and  _33
REMARK   15  A    between atoms: _38  and  _39
REMARK   16  A    between atoms: _41  and  _43
REMARK   17  A    between atoms: _43  and  _44
REMARK   18  A    between atoms: _43  and  _46
REMARK   19  A    between atoms: _46  and  _47
REMARK   20  A    between atoms: _53  and  _55
REMARK   21  A    between atoms: _55  and  _56
REMARK   22  A    between atoms: _55  and  _58
REMARK   23  A    between atoms: _61  and  _63
REMARK   24  A    between atoms: _63  and  _64
REMARK   25  A    between atoms: _63  and  _66
REMARK   26  A    between atoms: _66  and  _67
REMARK   27  A    between atoms: _70  and  _72
REMARK   28  A    between atoms: _72  and  _73
REMARK   29  A    between atoms: _72  and  _75
REMARK   30  A    between atoms: _75  and  _76
REMARK   31  A    between atoms: _81  and  _82
REMARK   32  A    between atoms: _84  and  _86
REMARK   33  A    between atoms: _86  and  _87
REMARK   34  A    between atoms: _86  and  _89
REMARK   35  A    between atoms: _89  and  _90
REMARK   36  A    between atoms: _90  and  _91
REMARK   37  A    between atoms: _93  and  _95
REMARK   38  A    between atoms: _95  and  _96
REMARK   39  A    between atoms: _95  and  _98
REMARK   40  A    between atoms: _98  and  _99
REMARK   41  A    between atoms: _99  and  _100
REMARK   42  A    between atoms: _103  and  _105
REMARK   43  A    between atoms: _105  and  _106
REMARK   44  A    between atoms: _105  and  _108
REMARK   45  A    between atoms: _111  and  _113
REMARK   46  A    between atoms: _113  and  _114
REMARK   47  A    between atoms: _113  and  _116
REMARK   48  A    between atoms: _119  and  _121
REMARK   49  A    between atoms: _121  and  _122
REMARK   50  A    between atoms: _121  and  _124
REMARK   51  A    between atoms: _124  and  _125
REMARK   52  A    between atoms: _131  and  _133
REMARK   53  A    between atoms: _133  and  _134
REMARK   54  A    between atoms: _133  and  _136
REMARK   55  A    between atoms: _139  and  _141
REMARK   56  A    between atoms: _141  and  _142
REMARK   57  A    between atoms: _141  and  _144
REMARK   58  A    between atoms: _144  and  _145
REMARK   59  A    between atoms: _150  and  _151
REMARK   60  A    between atoms: _153  and  _155
REMARK   61  A    between atoms: _155  and  _156
REMARK   62  A    between atoms: _155  and  _158
REMARK   63  A    between atoms: _158  and  _159
REMARK   64  A    between atoms: _159  and  _160
REMARK   65  A    between atoms: _162  and  _164
REMARK   66  A    between atoms: _164  and  _165
REMARK   67  A    between atoms: _164  and  _167
REMARK   68  A    between atoms: _167  and  _168
REMARK   69  A    between atoms: _168  and  _169
REMARK   70  A    between atoms: _172  and  _174
REMARK   71  A    between atoms: _174  and  _175
REMARK   72  A    between atoms: _174  and  _177
REMARK   73  A    between atoms: _177  and  _178
REMARK   74  A    between atoms: _178  and  _179
REMARK   75  A    between atoms: _182  and  _184
REMARK   76  A    between atoms: _184  and  _185
REMARK   77  A    between atoms: _184  and  _187
REMARK   78  A    between atoms: _187  and  _188
REMARK   79  A    between atoms: _193  and  _194
REMARK   80  A    between atoms: _196  and  _198
REMARK   81  A    between atoms: _198  and  _199
REMARK   82  A    between atoms: _198  and  _201
REMARK   83  A    between atoms: _201  and  _202
REMARK   84  A    between atoms: _212  and  _214
REMARK   85  A    between atoms: _214  and  _215
REMARK   86  A    between atoms: _214  and  _217
REMARK   87  A    between atoms: _217  and  _218
REMARK   88  A    between atoms: _218  and  _219
REMARK   89  A    between atoms: _222  and  _224
REMARK   90  A    between atoms: _224  and  _225
REMARK   91  A    between atoms: _224  and  _227
REMARK   92  A    between atoms: _227  and  _228
REMARK   93  A    between atoms: _228  and  _229
REMARK   94  A    between atoms: _229  and  _230
REMARK   95  A    between atoms: _239  and  _241
REMARK   96  A    between atoms: _241  and  _242
REMARK   97  A    between atoms: _241  and  _244
REMARK   98  A    between atoms: _244  and  _245
REMARK   99  A    between atoms: _245  and  _246
REMARK  100  A    between atoms: _249  and  _251
REMARK  101  A    between atoms: _251  and  _252
REMARK  102  A    between atoms: _251  and  _254
REMARK  103  A    between atoms: _254  and  _255
REMARK  104  A    between atoms: _258  and  _260
REMARK  105  A    between atoms: _260  and  _261
REMARK  106  A    between atoms: _260  and  _263
REMARK  107  A    between atoms: _263  and  _264
REMARK  108  A    between atoms: _264  and  _265
REMARK  109  A    between atoms: _270  and  _272
REMARK  110  A    between atoms: _272  and  _273
REMARK  111  A    between atoms: _272  and  _275
REMARK  112  A    between atoms: _275  and  _276
REMARK  113  A    between atoms: _276  and  _277
REMARK  114  A    between atoms: _277  and  _278
REMARK  115  A    between atoms: _278  and  _279
REMARK  116  A    between atoms: _283  and  _285
REMARK  117  A    between atoms: _285  and  _286
REMARK  118  A    between atoms: _289  and  _291
REMARK  119  A    between atoms: _291  and  _292
REMARK  120  A    between atoms: _294  and  _296
REMARK  121  A    between atoms: _296  and  _297
REMARK  122  A    between atoms: _296  and  _299
REMARK  123  A    between atoms: _299  and  _300
REMARK  124  A    between atoms: _305  and  _307
REMARK  125  A    between atoms: _307  and  _308
REMARK  126  A    between atoms: _307  and  _310
REMARK  127  A    between atoms: _310  and  _311
REMARK  128  A    between atoms: _311  and  _312
REMARK  129  A    between atoms: _315  and  _317
REMARK  130  A    between atoms: _317  and  _318
REMARK  131  A    between atoms: _317  and  _320
REMARK  132  A    between atoms: _320  and  _321
REMARK  133  A    between atoms: _323  and  _325
REMARK  134  A    between atoms: _325  and  _326
REMARK  135  A    between atoms: _325  and  _328
REMARK  136  A    between atoms: _328  and  _329
REMARK  137  A    between atoms: _335  and  _337
REMARK  138  A    between atoms: _337  and  _338
REMARK  139  A    between atoms: _337  and  _340
REMARK  140  A    between atoms: _343  and  _345
REMARK  141  A    between atoms: _345  and  _346
REMARK  142  A    between atoms: _345  and  _348
REMARK  143  A    between atoms: _348  and  _349
REMARK  144  A    between atoms: _352  and  _354
REMARK  145  A    between atoms: _354  and  _355
REMARK  146  A    between atoms: _354  and  _357
REMARK  147  A    between atoms: _357  and  _358
REMARK  148  A    between atoms: _361  and  _363
REMARK  149  A    between atoms: _363  and  _364
REMARK  150  A    between atoms: _363  and  _366
REMARK  151  A    between atoms: _366  and  _367
REMARK  152  A    between atoms: _370  and  _372
REMARK  153  A    between atoms: _372  and  _373
REMARK  154  A    between atoms: _372  and  _375
REMARK  155  A    between atoms: _375  and  _376
REMARK  156  A    between atoms: _379  and  _381
REMARK  157  A    between atoms: _381  and  _382
REMARK  158  A    between atoms: _381  and  _384
REMARK  159  A    between atoms: _384  and  _385
REMARK  160  A    between atoms: _390  and  _391
REMARK  161  A    between atoms: _393  and  _395
REMARK  162  A    between atoms: _395  and  _396
REMARK  163  A    between atoms: _395  and  _398
REMARK  164  A    between atoms: _398  and  _399
REMARK  165  A    between atoms: _404  and  _405
REMARK  166  A    between atoms: _407  and  _409
REMARK  167  A    between atoms: _409  and  _410
REMARK  168  A    between atoms: _409  and  _412
REMARK  169  A    between atoms: _412  and  _413
REMARK  170  A    between atoms: _416  and  _418
REMARK  171  A    between atoms: _418  and  _419
REMARK  172  A    between atoms: _418  and  _421
REMARK  173  A    between atoms: _421  and  _422
REMARK  174  A    between atoms: _422  and  _423
REMARK  175  A    between atoms: _428  and  _430
REMARK  176  A    between atoms: _430  and  _431
REMARK  177  A    between atoms: _430  and  _433
REMARK  178  A    between atoms: _436  and  _438
REMARK  179  A    between atoms: _438  and  _439
REMARK  180  A    between atoms: _438  and  _441
REMARK  181  A    between atoms: _441  and  _442
REMARK  182  A    between atoms: _445  and  _447
REMARK  183  A    between atoms: _447  and  _448
REMARK  184  A    between atoms: _447  and  _450
REMARK  185  A    between atoms: _450  and  _451
REMARK  186  A    between atoms: _453  and  _455
REMARK  187  A    between atoms: _455  and  _456
REMARK  188  A    between atoms: _458  and  _460
REMARK  189  A    between atoms: _460  and  _461
REMARK  190  A    between atoms: _460  and  _463
REMARK  191  A    between atoms: _463  and  _464
REMARK  192  A    between atoms: _464  and  _790
REMARK  193  A    between atoms: _465  and  _467
REMARK  194  A    between atoms: _467  and  _468
REMARK  195  A    between atoms: _467  and  _470
REMARK  196  A    between atoms: _470  and  _471
REMARK  197  A    between atoms: _476  and  _477
REMARK  198  A    between atoms: _479  and  _481
REMARK  199  A    between atoms: _481  and  _482
REMARK  200  A    between atoms: _481  and  _484
REMARK  201  A    between atoms: _484  and  _485
REMARK  202  A    between atoms: _485  and  _486
REMARK  203  A    between atoms: _491  and  _493
REMARK  204  A    between atoms: _493  and  _494
REMARK  205  A    between atoms: _493  and  _496
REMARK  206  A    between atoms: _496  and  _497
REMARK  207  A    between atoms: _497  and  _498
REMARK  208  A    between atoms: _503  and  _505
REMARK  209  A    between atoms: _505  and  _506
REMARK  210  A    between atoms: _505  and  _508
REMARK  211  A    between atoms: _508  and  _509
REMARK  212  A    between atoms: _514  and  _515
REMARK  213  A    between atoms: _517  and  _519
REMARK  214  A    between atoms: _519  and  _520
REMARK  215  A    between atoms: _523  and  _525
REMARK  216  A    between atoms: _525  and  _526
REMARK  217  A    between atoms: _525  and  _528
REMARK  218  A    between atoms: _528  and  _529
REMARK  219  A    between atoms: _534  and  _535
REMARK  220  A    between atoms: _537  and  _539
REMARK  221  A    between atoms: _539  and  _540
REMARK  222  A    between atoms: _539  and  _542
REMARK  223  A    between atoms: _542  and  _543
REMARK  224  A    between atoms: _548  and  _549
REMARK  225  A    between atoms: _551  and  _553
REMARK  226  A    between atoms: _553  and  _554
REMARK  227  A    between atoms: _553  and  _556
REMARK  228  A    between atoms: _556  and  _557
REMARK  229  A    between atoms: _560  and  _562
REMARK  230  A    between atoms: _562  and  _563
REMARK  231  A    between atoms: _562  and  _565
REMARK  232  A    between atoms: _565  and  _566
REMARK  233  A    between atoms: _576  and  _578
REMARK  234  A    between atoms: _578  and  _579
REMARK  235  A    between atoms: _582  and  _584
REMARK  236  A    between atoms: _584  and  _585
REMARK  237  A    between atoms: _588  and  _590
REMARK  238  A    between atoms: _590  and  _591
REMARK  239  A    between atoms: _590  and  _593
REMARK  240  A    between atoms: _593  and  _594
REMARK  241  A    between atoms: _597  and  _599
REMARK  242  A    between atoms: _599  and  _600
REMARK  243  A    between atoms: _599  and  _602
REMARK  244  A    between atoms: _602  and  _603
REMARK  245  A    between atoms: _606  and  _608
REMARK  246  A    between atoms: _608  and  _609
REMARK  247  A    between atoms: _608  and  _611
REMARK  248  A    between atoms: _611  and  _612
REMARK  249  A    between atoms: _615  and  _617
REMARK  250  A    between atoms: _617  and  _618
REMARK  251  A    between atoms: _617  and  _620
REMARK  252  A    between atoms: _620  and  _621
REMARK  253  A    between atoms: _621  and  _622
REMARK  254  A    between atoms: _622  and  _623
REMARK  255  A    between atoms: _623  and  _624
REMARK  256  A    between atoms: _628  and  _630
REMARK  257  A    between atoms: _630  and  _631
REMARK  258  A    between atoms: _630  and  _633
REMARK  259  A    between atoms: _633  and  _634
REMARK  260  A    between atoms: _639  and  _641
REMARK  261  A    between atoms: _641  and  _642
REMARK  262  A    between atoms: _641  and  _644
REMARK  263  A    between atoms: _644  and  _645
REMARK  264  A    between atoms: _645  and  _646
REMARK  265  A    between atoms: _646  and  _647
REMARK  266  A    between atoms: _647  and  _648
REMARK  267  A    between atoms: _652  and  _654
REMARK  268  A    between atoms: _654  and  _655
REMARK  269  A    between atoms: _654  and  _657
REMARK  270  A    between atoms: _657  and  _658
REMARK  271  A    between atoms: _668  and  _670
REMARK  272  A    between atoms: _670  and  _671
REMARK  273  A    between atoms: _674  and  _676
REMARK  274  A    between atoms: _676  and  _677
REMARK  275  A    between atoms: _679  and  _681
REMARK  276  A    between atoms: _681  and  _682
REMARK  277  A    between atoms: _685  and  _687
REMARK  278  A    between atoms: _687  and  _688
REMARK  279  A    between atoms: _691  and  _693
REMARK  280  A    between atoms: _693  and  _694
REMARK  281  A    between atoms: _693  and  _696
REMARK  282  A    between atoms: _696  and  _697
REMARK  283  A    between atoms: _697  and  _698
REMARK  284  A    between atoms: _701  and  _703
REMARK  285  A    between atoms: _703  and  _704
REMARK  286  A    between atoms: _703  and  _706
REMARK  287  A    between atoms: _706  and  _707
REMARK  288  A    between atoms: _712  and  _713
REMARK  289  A    between atoms: _715  and  _717
REMARK  290  A    between atoms: _717  and  _718
REMARK  291  A    between atoms: _717  and  _720
REMARK  292  A    between atoms: _720  and  _721
REMARK  293  A    between atoms: _726  and  _727
REMARK  294  A    between atoms: _729  and  _731
REMARK  295  A    between atoms: _731  and  _732
REMARK  296  A    between atoms: _731  and  _734
REMARK  297  A    between atoms: _734  and  _735
REMARK  298  A    between atoms: _735  and  _736
REMARK  299  A    between atoms: _736  and  _737
REMARK  300  A    between atoms: _746  and  _748
REMARK  301  A    between atoms: _748  and  _749
REMARK  302  A    between atoms: _752  and  _754
REMARK  303  A    between atoms: _754  and  _755
REMARK  304  A    between atoms: _754  and  _757
REMARK  305  A    between atoms: _757  and  _758
REMARK  306  A    between atoms: _763  and  _764
REMARK  307  A    between atoms: _766  and  _768
REMARK  308  A    between atoms: _768  and  _769
REMARK  309  A    between atoms: _768  and  _771
REMARK  310  A    between atoms: _771  and  _772
REMARK  311  A    between atoms: _775  and  _777
REMARK  312  A    between atoms: _777  and  _778
REMARK  313  A    between atoms: _777  and  _780
REMARK  314  A    between atoms: _780  and  _781
REMARK  315  A    between atoms: _784  and  _786
REMARK  316  A    between atoms: _786  and  _787
REMARK  317  A    between atoms: _786  and  _789
REMARK  318  A    between atoms: _789  and  _790
REMARK  319  A    between atoms: _791  and  _793
REMARK  320  A    between atoms: _793  and  _794
REMARK  321  A    between atoms: _793  and  _796
REMARK  322  A    between atoms: _799  and  _801
REMARK  323  A    between atoms: _801  and  _802
REMARK  324  A    between atoms: _801  and  _804
REMARK  325  A    between atoms: _804  and  _805
REMARK  326  A    between atoms: _805  and  _806
REMARK  327  A    between atoms: _809  and  _811
REMARK  328  A    between atoms: _811  and  _812
REMARK  329  A    between atoms: _811  and  _814
REMARK  330  A    between atoms: _814  and  _815
REMARK  331  A    between atoms: _825  and  _827
REMARK  332  A    between atoms: _827  and  _828
REMARK  333  A    between atoms: _827  and  _830
REMARK  334  A    between atoms: _830  and  _831
REMARK  335  A    between atoms: _834  and  _836
REMARK  336  A    between atoms: _836  and  _837
REMARK  337  A    between atoms: _836  and  _839
REMARK  338  A    between atoms: _839  and  _840
REMARK  339  A    between atoms: _840  and  _841
REMARK  340  A    between atoms: _841  and  _842
REMARK  341  A    between atoms: _851  and  _853
REMARK  342  A    between atoms: _853  and  _854
REMARK  343  A    between atoms: _853  and  _856
REMARK  344  A    between atoms: _856  and  _857
REMARK  345  A    between atoms: _862  and  _863
REMARK                            x       y       z     vdW  Elec       q    Type
REMARK                         _______ _______ _______ _____ _____    ______ ____
ROOT
ATOM      1  O   HOH     1      43.512  54.064  -0.248  0.00  0.00    +0.000 OA
ENDROOT
TORSDOF 0
REMARK  Name = ../refined-set-2016/1fzj/1fzj_pocket.pdb
REMARK  345 active torsions:
REMARK  status: ('A' for Active; 'I' for Inactive)
REMARK    1  A    between atoms: _1  and  _3
REMARK    2  A    between atoms: _3  and  _4
REMARK    3  A    between atoms: _3  and  _6
REMARK    4  A    between atoms: _6  and  _7
REMARK    5  A    between atoms: _10  and  _12
REMARK    6  A    between atoms: _12  and  _13
REMARK    7  A    between atoms: _12  and  _15
REMARK    8  A    between atoms: _15  and  _16
REMARK    9  A    between atoms: _16  and  _17
REMARK   10  A    between atoms: _17  and  _18
REMARK   11  A    between atoms: _27  and  _29
REMARK   12  A    between atoms: _29  and  _30
REMARK   13  A    between atoms: _29  and  _32
REMARK   14  A    between atoms: _32  and  _33
REMARK   15  A    between atoms: _38  and  _39
REMARK   16  A    between atoms: _41  and  _43
REMARK   17  A    between atoms: _43  and  _44
REMARK   18  A    between atoms: _43  and  _46
REMARK   19  A    between atoms: _46  and  _47
REMARK   20  A    between atoms: _53  and  _55
REMARK   21  A    between atoms: _55  and  _56
REMARK   22  A    between atoms: _55  and  _58
REMARK   23  A    between atoms: _61  and  _63
REMARK   24  A    between atoms: _63  and  _64
REMARK   25  A    between atoms: _63  and  _66
REMARK   26  A    between atoms: _66  and  _67
REMARK   27  A    between atoms: _70  and  _72
REMARK   28  A    between atoms: _72  and  _73
REMARK   29  A    between atoms: _72  and  _75
REMARK   30  A    between atoms: _75  and  _76
REMARK   31  A    between atoms: _81  and  _82
REMARK   32  A    between atoms: _84  and  _86
REMARK   33  A    between atoms: _86  and  _87
REMARK   34  A    between atoms: _86  and  _89
REMARK   35  A    between atoms: _89  and  _90
REMARK   36  A    between atoms: _90  and  _91
REMARK   37  A    between atoms: _93  and  _95
REMARK   38  A    between atoms: _95  and  _96
REMARK   39  A    between atoms: _95  and  _98
REMARK   40  A    between atoms: _98  and  _99
REMARK   41  A    between atoms: _99  and  _100
REMARK   42  A    between atoms: _103  and  _105
REMARK   43  A    between atoms: _105  and  _106
REMARK   44  A    between atoms: _105  and  _108
REMARK   45  A    between atoms: _111  and  _113
REMARK   46  A    between atoms: _113  and  _114
REMARK   47  A    between atoms: _113  and  _116
REMARK   48  A    between atoms: _119  and  _121
REMARK   49  A    between atoms: _121  and  _122
REMARK   50  A    between atoms: _121  and  _124
REMARK   51  A    between atoms: _124  and  _125
REMARK   52  A    between atoms: _131  and  _133
REMARK   53  A    between atoms: _133  and  _134
REMARK   54  A    between atoms: _133  and  _136
REMARK   55  A    between atoms: _139  and  _141
REMARK   56  A    between atoms: _141  and  _142
REMARK   57  A    between atoms: _141  and  _144
REMARK   58  A    between atoms: _144  and  _145
REMARK   59  A    between atoms: _150  and  _151
REMARK   60  A    between atoms: _153  and  _155
REMARK   61  A    between atoms: _155  and  _156
REMARK   62  A    between atoms: _155  and  _158
REMARK   63  A    between atoms: _158  and  _159
REMARK   64  A    between atoms: _159  and  _160
REMARK   65  A    between atoms: _162  and  _164
REMARK   66  A    between atoms: _164  and  _165
REMARK   67  A    between atoms: _164  and  _167
REMARK   68  A    between atoms: _167  and  _168
REMARK   69  A    between atoms: _168  and  _169
REMARK   70  A    between atoms: _172  and  _174
REMARK   71  A    between atoms: _174  and  _175
REMARK   72  A    between atoms: _174  and  _177
REMARK   73  A    between atoms: _177  and  _178
REMARK   74  A    between atoms: _178  and  _179
REMARK   75  A    between atoms: _182  and  _184
REMARK   76  A    between atoms: _184  and  _185
REMARK   77  A    between atoms: _184  and  _187
REMARK   78  A    between atoms: _187  and  _188
REMARK   79  A    between atoms: _193  and  _194
REMARK   80  A    between atoms: _196  and  _198
REMARK   81  A    between atoms: _198  and  _199
REMARK   82  A    between atoms: _198  and  _201
REMARK   83  A    between atoms: _201  and  _202
REMARK   84  A    between atoms: _212  and  _214
REMARK   85  A    between atoms: _214  and  _215
REMARK   86  A    between atoms: _214  and  _217
REMARK   87  A    between atoms: _217  and  _218
REMARK   88  A    between atoms: _218  and  _219
REMARK   89  A    between atoms: _222  and  _224
REMARK   90  A    between atoms: _224  and  _225
REMARK   91  A    between atoms: _224  and  _227
REMARK   92  A    between atoms: _227  and  _228
REMARK   93  A    between atoms: _228  and  _229
REMARK   94  A    between atoms: _229  and  _230
REMARK   95  A    between atoms: _239  and  _241
REMARK   96  A    between atoms: _241  and  _242
REMARK   97  A    between atoms: _241  and  _244
REMARK   98  A    between atoms: _244  and  _245
REMARK   99  A    between atoms: _245  and  _246
REMARK  100  A    between atoms: _249  and  _251
REMARK  101  A    between atoms: _251  and  _252
REMARK  102  A    between atoms: _251  and  _254
REMARK  103  A    between atoms: _254  and  _255
REMARK  104  A    between atoms: _258  and  _260
REMARK  105  A    between atoms: _260  and  _261
REMARK  106  A    between atoms: _260  and  _263
REMARK  107  A    between atoms: _263  and  _264
REMARK  108  A    between atoms: _264  and  _265
REMARK  109  A    between atoms: _270  and  _272
REMARK  110  A    between atoms: _272  and  _273
REMARK  111  A    between atoms: _272  and  _275
REMARK  112  A    between atoms: _275  and  _276
REMARK  113  A    between atoms: _276  and  _277
REMARK  114  A    between atoms: _277  and  _278
REMARK  115  A    between atoms: _278  and  _279
REMARK  116  A    between atoms: _283  and  _285
REMARK  117  A    between atoms: _285  and  _286
REMARK  118  A    between atoms: _289  and  _291
REMARK  119  A    between atoms: _291  and  _292
REMARK  120  A    between atoms: _294  and  _296
REMARK  121  A    between atoms: _296  and  _297
REMARK  122  A    between atoms: _296  and  _299
REMARK  123  A    between atoms: _299  and  _300
REMARK  124  A    between atoms: _305  and  _307
REMARK  125  A    between atoms: _307  and  _308
REMARK  126  A    between atoms: _307  and  _310
REMARK  127  A    between atoms: _310  and  _311
REMARK  128  A    between atoms: _311  and  _312
REMARK  129  A    between atoms: _315  and  _317
REMARK  130  A    between atoms: _317  and  _318
REMARK  131  A    between atoms: _317  and  _320
REMARK  132  A    between atoms: _320  and  _321
REMARK  133  A    between atoms: _323  and  _325
REMARK  134  A    between atoms: _325  and  _326
REMARK  135  A    between atoms: _325  and  _328
REMARK  136  A    between atoms: _328  and  _329
REMARK  137  A    between atoms: _335  and  _337
REMARK  138  A    between atoms: _337  and  _338
REMARK  139  A    between atoms: _337  and  _340
REMARK  140  A    between atoms: _343  and  _345
REMARK  141  A    between atoms: _345  and  _346
REMARK  142  A    between atoms: _345  and  _348
REMARK  143  A    between atoms: _348  and  _349
REMARK  144  A    between atoms: _352  and  _354
REMARK  145  A    between atoms: _354  and  _355
REMARK  146  A    between atoms: _354  and  _357
REMARK  147  A    between atoms: _357  and  _358
REMARK  148  A    between atoms: _361  and  _363
REMARK  149  A    between atoms: _363  and  _364
REMARK  150  A    between atoms: _363  and  _366
REMARK  151  A    between atoms: _366  and  _367
REMARK  152  A    between atoms: _370  and  _372
REMARK  153  A    between atoms: _372  and  _373
REMARK  154  A    between atoms: _372  and  _375
REMARK  155  A    between atoms: _375  and  _376
REMARK  156  A    between atoms: _379  and  _381
REMARK  157  A    between atoms: _381  and  _382
REMARK  158  A    between atoms: _381  and  _384
REMARK  159  A    between atoms: _384  and  _385
REMARK  160  A    between atoms: _390  and  _391
REMARK  161  A    between atoms: _393  and  _395
REMARK  162  A    between atoms: _395  and  _396
REMARK  163  A    between atoms: _395  and  _398
REMARK  164  A    between atoms: _398  and  _399
REMARK  165  A    between atoms: _404  and  _405
REMARK  166  A    between atoms: _407  and  _409
REMARK  167  A    between atoms: _409  and  _410
REMARK  168  A    between atoms: _409  and  _412
REMARK  169  A    between atoms: _412  and  _413
REMARK  170  A    between atoms: _416  and  _418
REMARK  171  A    between atoms: _418  and  _419
REMARK  172  A    between atoms: _418  and  _421
REMARK  173  A    between atoms: _421  and  _422
REMARK  174  A    between atoms: _422  and  _423
REMARK  175  A    between atoms: _428  and  _430
REMARK  176  A    between atoms: _430  and  _431
REMARK  177  A    between atoms: _430  and  _433
REMARK  178  A    between atoms: _436  and  _438
REMARK  179  A    between atoms: _438  and  _439
REMARK  180  A    between atoms: _438  and  _441
REMARK  181  A    between atoms: _441  and  _442
REMARK  182  A    between atoms: _445  and  _447
REMARK  183  A    between atoms: _447  and  _448
REMARK  184  A    between atoms: _447  and  _450
REMARK  185  A    between atoms: _450  and  _451
REMARK  186  A    between atoms: _453  and  _455
REMARK  187  A    between atoms: _455  and  _456
REMARK  188  A    between atoms: _458  and  _460
REMARK  189  A    between atoms: _460  and  _461
REMARK  190  A    between atoms: _460  and  _463
REMARK  191  A    between atoms: _463  and  _464
REMARK  192  A    between atoms: _464  and  _790
REMARK  193  A    between atoms: _465  and  _467
REMARK  194  A    between atoms: _467  and  _468
REMARK  195  A    between atoms: _467  and  _470
REMARK  196  A    between atoms: _470  and  _471
REMARK  197  A    between atoms: _476  and  _477
REMARK  198  A    between atoms: _479  and  _481
REMARK  199  A    between atoms: _481  and  _482
REMARK  200  A    between atoms: _481  and  _484
REMARK  201  A    between atoms: _484  and  _485
REMARK  202  A    between atoms: _485  and  _486
REMARK  203  A    between atoms: _491  and  _493
REMARK  204  A    between atoms: _493  and  _494
REMARK  205  A    between atoms: _493  and  _496
REMARK  206  A    between atoms: _496  and  _497
REMARK  207  A    between atoms: _497  and  _498
REMARK  208  A    between atoms: _503  and  _505
REMARK  209  A    between atoms: _505  and  _506
REMARK  210  A    between atoms: _505  and  _508
REMARK  211  A    between atoms: _508  and  _509
REMARK  212  A    between atoms: _514  and  _515
REMARK  213  A    between atoms: _517  and  _519
REMARK  214  A    between atoms: _519  and  _520
REMARK  215  A    between atoms: _523  and  _525
REMARK  216  A    between atoms: _525  and  _526
REMARK  217  A    between atoms: _525  and  _528
REMARK  218  A    between atoms: _528  and  _529
REMARK  219  A    between atoms: _534  and  _535
REMARK  220  A    between atoms: _537  and  _539
REMARK  221  A    between atoms: _539  and  _540
REMARK  222  A    between atoms: _539  and  _542
REMARK  223  A    between atoms: _542  and  _543
REMARK  224  A    between atoms: _548  and  _549
REMARK  225  A    between atoms: _551  and  _553
REMARK  226  A    between atoms: _553  and  _554
REMARK  227  A    between atoms: _553  and  _556
REMARK  228  A    between atoms: _556  and  _557
REMARK  229  A    between atoms: _560  and  _562
REMARK  230  A    between atoms: _562  and  _563
REMARK  231  A    between atoms: _562  and  _565
REMARK  232  A    between atoms: _565  and  _566
REMARK  233  A    between atoms: _576  and  _578
REMARK  234  A    between atoms: _578  and  _579
REMARK  235  A    between atoms: _582  and  _584
REMARK  236  A    between atoms: _584  and  _585
REMARK  237  A    between atoms: _588  and  _590
REMARK  238  A    between atoms: _590  and  _591
REMARK  239  A    between atoms: _590  and  _593
REMARK  240  A    between atoms: _593  and  _594
REMARK  241  A    between atoms: _597  and  _599
REMARK  242  A    between atoms: _599  and  _600
REMARK  243  A    between atoms: _599  and  _602
REMARK  244  A    between atoms: _602  and  _603
REMARK  245  A    between atoms: _606  and  _608
REMARK  246  A    between atoms: _608  and  _609
REMARK  247  A    between atoms: _608  and  _611
REMARK  248  A    between atoms: _611  and  _612
REMARK  249  A    between atoms: _615  and  _617
REMARK  250  A    between atoms: _617  and  _618
REMARK  251  A    between atoms: _617  and  _620
REMARK  252  A    between atoms: _620  and  _621
REMARK  253  A    between atoms: _621  and  _622
REMARK  254  A    between atoms: _622  and  _623
REMARK  255  A    between atoms: _623  and  _624
REMARK  256  A    between atoms: _628  and  _630
REMARK  257  A    between atoms: _630  and  _631
REMARK  258  A    between atoms: _630  and  _633
REMARK  259  A    between atoms: _633  and  _634
REMARK  260  A    between atoms: _639  and  _641
REMARK  261  A    between atoms: _641  and  _642
REMARK  262  A    between atoms: _641  and  _644
REMARK  263  A    between atoms: _644  and  _645
REMARK  264  A    between atoms: _645  and  _646
REMARK  265  A    between atoms: _646  and  _647
REMARK  266  A    between atoms: _647  and  _648
REMARK  267  A    between atoms: _652  and  _654
REMARK  268  A    between atoms: _654  and  _655
REMARK  269  A    between atoms: _654  and  _657
REMARK  270  A    between atoms: _657  and  _658
REMARK  271  A    between atoms: _668  and  _670
REMARK  272  A    between atoms: _670  and  _671
REMARK  273  A    between atoms: _674  and  _676
REMARK  274  A    between atoms: _676  and  _677
REMARK  275  A    between atoms: _679  and  _681
REMARK  276  A    between atoms: _681  and  _682
REMARK  277  A    between atoms: _685  and  _687
REMARK  278  A    between atoms: _687  and  _688
REMARK  279  A    between atoms: _691  and  _693
REMARK  280  A    between atoms: _693  and  _694
REMARK  281  A    between atoms: _693  and  _696
REMARK  282  A    between atoms: _696  and  _697
REMARK  283  A    between atoms: _697  and  _698
REMARK  284  A    between atoms: _701  and  _703
REMARK  285  A    between atoms: _703  and  _704
REMARK  286  A    between atoms: _703  and  _706
REMARK  287  A    between atoms: _706  and  _707
REMARK  288  A    between atoms: _712  and  _713
REMARK  289  A    between atoms: _715  and  _717
REMARK  290  A    between atoms: _717  and  _718
REMARK  291  A    between atoms: _717  and  _720
REMARK  292  A    between atoms: _720  and  _721
REMARK  293  A    between atoms: _726  and  _727
REMARK  294  A    between atoms: _729  and  _731
REMARK  295  A    between atoms: _731  and  _732
REMARK  296  A    between atoms: _731  and  _734
REMARK  297  A    between atoms: _734  and  _735
REMARK  298  A    between atoms: _735  and  _736
REMARK  299  A    between atoms: _736  and  _737
REMARK  300  A    between atoms: _746  and  _748
REMARK  301  A    between atoms: _748  and  _749
REMARK  302  A    between atoms: _752  and  _754
REMARK  303  A    between atoms: _754  and  _755
REMARK  304  A    between atoms: _754  and  _757
REMARK  305  A    between atoms: _757  and  _758
REMARK  306  A    between atoms: _763  and  _764
REMARK  307  A    between atoms: _766  and  _768
REMARK  308  A    between atoms: _768  and  _769
REMARK  309  A    between atoms: _768  and  _771
REMARK  310  A    between atoms: _771  and  _772
REMARK  311  A    between atoms: _775  and  _777
REMARK  312  A    between atoms: _777  and  _778
REMARK  313  A    between atoms: _777  and  _780
REMARK  314  A    between atoms: _780  and  _781
REMARK  315  A    between atoms: _784  and  _786
REMARK  316  A    between atoms: _786  and  _787
REMARK  317  A    between atoms: _786  and  _789
REMARK  318  A    between atoms: _789  and  _790
REMARK  319  A    between atoms: _791  and  _793
REMARK  320  A    between atoms: _793  and  _794
REMARK  321  A    between atoms: _793  and  _796
REMARK  322  A    between atoms: _799  and  _801
REMARK  323  A    between atoms: _801  and  _802
REMARK  324  A    between atoms: _801  and  _804
REMARK  325  A    between atoms: _804  and  _805
REMARK  326  A    between atoms: _805  and  _806
REMARK  327  A    between atoms: _809  and  _811
REMARK  328  A    between atoms: _811  and  _812
REMARK  329  A    between atoms: _811  and  _814
REMARK  330  A    between atoms: _814  and  _815
REMARK  331  A    between atoms: _825  and  _827
REMARK  332  A    between atoms: _827  and  _828
REMARK  333  A    between atoms: _827  and  _830
REMARK  334  A    between atoms: _830  and  _831
REMARK  335  A    between atoms: _834  and  _836
REMARK  336  A    between atoms: _836  and  _837
REMARK  337  A    between atoms: _836  and  _839
REMARK  338  A    between atoms: _839  and  _840
REMARK  339  A    between atoms: _840  and  _841
REMARK  340  A    between atoms: _841  and  _842
REMARK  341  A    between atoms: _851  and  _853
REMARK  342  A    between atoms: _853  and  _854
REMARK  343  A    between atoms: _853  and  _856
REMARK  344  A    between atoms: _856  and  _857
REMARK  345  A    between atoms: _862  and  _863
REMARK                            x       y       z     vdW  Elec       q    Type
REMARK                         _______ _______ _______ _____ _____    ______ ____
ROOT
ATOM      1  O   HOH     1      49.166  63.885   5.769  0.00  0.00    +0.000 OA
ENDROOT
TORSDOF 0
REMARK  Name = ../refined-set-2016/1fzj/1fzj_pocket.pdb
REMARK  345 active torsions:
REMARK  status: ('A' for Active; 'I' for Inactive)
REMARK    1  A    between atoms: _1  and  _3
REMARK    2  A    between atoms: _3  and  _4
REMARK    3  A    between atoms: _3  and  _6
REMARK    4  A    between atoms: _6  and  _7
REMARK    5  A    between atoms: _10  and  _12
REMARK    6  A    between atoms: _12  and  _13
REMARK    7  A    between atoms: _12  and  _15
REMARK    8  A    between atoms: _15  and  _16
REMARK    9  A    between atoms: _16  and  _17
REMARK   10  A    between atoms: _17  and  _18
REMARK   11  A    between atoms: _27  and  _29
REMARK   12  A    between atoms: _29  and  _30
REMARK   13  A    between atoms: _29  and  _32
REMARK   14  A    between atoms: _32  and  _33
REMARK   15  A    between atoms: _38  and  _39
REMARK   16  A    between atoms: _41  and  _43
REMARK   17  A    between atoms: _43  and  _44
REMARK   18  A    between atoms: _43  and  _46
REMARK   19  A    between atoms: _46  and  _47
REMARK   20  A    between atoms: _53  and  _55
REMARK   21  A    between atoms: _55  and  _56
REMARK   22  A    between atoms: _55  and  _58
REMARK   23  A    between atoms: _61  and  _63
REMARK   24  A    between atoms: _63  and  _64
REMARK   25  A    between atoms: _63  and  _66
REMARK   26  A    between atoms: _66  and  _67
REMARK   27  A    between atoms: _70  and  _72
REMARK   28  A    between atoms: _72  and  _73
REMARK   29  A    between atoms: _72  and  _75
REMARK   30  A    between atoms: _75  and  _76
REMARK   31  A    between atoms: _81  and  _82
REMARK   32  A    between atoms: _84  and  _86
REMARK   33  A    between atoms: _86  and  _87
REMARK   34  A    between atoms: _86  and  _89
REMARK   35  A    between atoms: _89  and  _90
REMARK   36  A    between atoms: _90  and  _91
REMARK   37  A    between atoms: _93  and  _95
REMARK   38  A    between atoms: _95  and  _96
REMARK   39  A    between atoms: _95  and  _98
REMARK   40  A    between atoms: _98  and  _99
REMARK   41  A    between atoms: _99  and  _100
REMARK   42  A    between atoms: _103  and  _105
REMARK   43  A    between atoms: _105  and  _106
REMARK   44  A    between atoms: _105  and  _108
REMARK   45  A    between atoms: _111  and  _113
REMARK   46  A    between atoms: _113  and  _114
REMARK   47  A    between atoms: _113  and  _116
REMARK   48  A    between atoms: _119  and  _121
REMARK   49  A    between atoms: _121  and  _122
REMARK   50  A    between atoms: _121  and  _124
REMARK   51  A    between atoms: _124  and  _125
REMARK   52  A    between atoms: _131  and  _133
REMARK   53  A    between atoms: _133  and  _134
REMARK   54  A    between atoms: _133  and  _136
REMARK   55  A    between atoms: _139  and  _141
REMARK   56  A    between atoms: _141  and  _142
REMARK   57  A    between atoms: _141  and  _144
REMARK   58  A    between atoms: _144  and  _145
REMARK   59  A    between atoms: _150  and  _151
REMARK   60  A    between atoms: _153  and  _155
REMARK   61  A    between atoms: _155  and  _156
REMARK   62  A    between atoms: _155  and  _158
REMARK   63  A    between atoms: _158  and  _159
REMARK   64  A    between atoms: _159  and  _160
REMARK   65  A    between atoms: _162  and  _164
REMARK   66  A    between atoms: _164  and  _165
REMARK   67  A    between atoms: _164  and  _167
REMARK   68  A    between atoms: _167  and  _168
REMARK   69  A    between atoms: _168  and  _169
REMARK   70  A    between atoms: _172  and  _174
REMARK   71  A    between atoms: _174  and  _175
REMARK   72  A    between atoms: _174  and  _177
REMARK   73  A    between atoms: _177  and  _178
REMARK   74  A    between atoms: _178  and  _179
REMARK   75  A    between atoms: _182  and  _184
REMARK   76  A    between atoms: _184  and  _185
REMARK   77  A    between atoms: _184  and  _187
REMARK   78  A    between atoms: _187  and  _188
REMARK   79  A    between atoms: _193  and  _194
REMARK   80  A    between atoms: _196  and  _198
REMARK   81  A    between atoms: _198  and  _199
REMARK   82  A    between atoms: _198  and  _201
REMARK   83  A    between atoms: _201  and  _202
REMARK   84  A    between atoms: _212  and  _214
REMARK   85  A    between atoms: _214  and  _215
REMARK   86  A    between atoms: _214  and  _217
REMARK   87  A    between atoms: _217  and  _218
REMARK   88  A    between atoms: _218  and  _219
REMARK   89  A    between atoms: _222  and  _224
REMARK   90  A    between atoms: _224  and  _225
REMARK   91  A    between atoms: _224  and  _227
REMARK   92  A    between atoms: _227  and  _228
REMARK   93  A    between atoms: _228  and  _229
REMARK   94  A    between atoms: _229  and  _230
REMARK   95  A    between atoms: _239  and  _241
REMARK   96  A    between atoms: _241  and  _242
REMARK   97  A    between atoms: _241  and  _244
REMARK   98  A    between atoms: _244  and  _245
REMARK   99  A    between atoms: _245  and  _246
REMARK  100  A    between atoms: _249  and  _251
REMARK  101  A    between atoms: _251  and  _252
REMARK  102  A    between atoms: _251  and  _254
REMARK  103  A    between atoms: _254  and  _255
REMARK  104  A    between atoms: _258  and  _260
REMARK  105  A    between atoms: _260  and  _261
REMARK  106  A    between atoms: _260  and  _263
REMARK  107  A    between atoms: _263  and  _264
REMARK  108  A    between atoms: _264  and  _265
REMARK  109  A    between atoms: _270  and  _272
REMARK  110  A    between atoms: _272  and  _273
REMARK  111  A    between atoms: _272  and  _275
REMARK  112  A    between atoms: _275  and  _276
REMARK  113  A    between atoms: _276  and  _277
REMARK  114  A    between atoms: _277  and  _278
REMARK  115  A    between atoms: _278  and  _279
REMARK  116  A    between atoms: _283  and  _285
REMARK  117  A    between atoms: _285  and  _286
REMARK  118  A    between atoms: _289  and  _291
REMARK  119  A    between atoms: _291  and  _292
REMARK  120  A    between atoms: _294  and  _296
REMARK  121  A    between atoms: _296  and  _297
REMARK  122  A    between atoms: _296  and  _299
REMARK  123  A    between atoms: _299  and  _300
REMARK  124  A    between atoms: _305  and  _307
REMARK  125  A    between atoms: _307  and  _308
REMARK  126  A    between atoms: _307  and  _310
REMARK  127  A    between atoms: _310  and  _311
REMARK  128  A    between atoms: _311  and  _312
REMARK  129  A    between atoms: _315  and  _317
REMARK  130  A    between atoms: _317  and  _318
REMARK  131  A    between atoms: _317  and  _320
REMARK  132  A    between atoms: _320  and  _321
REMARK  133  A    between atoms: _323  and  _325
REMARK  134  A    between atoms: _325  and  _326
REMARK  135  A    between atoms: _325  and  _328
REMARK  136  A    between atoms: _328  and  _329
REMARK  137  A    between atoms: _335  and  _337
REMARK  138  A    between atoms: _337  and  _338
REMARK  139  A    between atoms: _337  and  _340
REMARK  140  A    between atoms: _343  and  _345
REMARK  141  A    between atoms: _345  and  _346
REMARK  142  A    between atoms: _345  and  _348
REMARK  143  A    between atoms: _348  and  _349
REMARK  144  A    between atoms: _352  and  _354
REMARK  145  A    between atoms: _354  and  _355
REMARK  146  A    between atoms: _354  and  _357
REMARK  147  A    between atoms: _357  and  _358
REMARK  148  A    between atoms: _361  and  _363
REMARK  149  A    between atoms: _363  and  _364
REMARK  150  A    between atoms: _363  and  _366
REMARK  151  A    between atoms: _366  and  _367
REMARK  152  A    between atoms: _370  and  _372
REMARK  153  A    between atoms: _372  and  _373
REMARK  154  A    between atoms: _372  and  _375
REMARK  155  A    between atoms: _375  and  _376
REMARK  156  A    between atoms: _379  and  _381
REMARK  157  A    between atoms: _381  and  _382
REMARK  158  A    between atoms: _381  and  _384
REMARK  159  A    between atoms: _384  and  _385
REMARK  160  A    between atoms: _390  and  _391
REMARK  161  A    between atoms: _393  and  _395
REMARK  162  A    between atoms: _395  and  _396
REMARK  163  A    between atoms: _395  and  _398
REMARK  164  A    between atoms: _398  and  _399
REMARK  165  A    between atoms: _404  and  _405
REMARK  166  A    between atoms: _407  and  _409
REMARK  167  A    between atoms: _409  and  _410
REMARK  168  A    between atoms: _409  and  _412
REMARK  169  A    between atoms: _412  and  _413
REMARK  170  A    between atoms: _416  and  _418
REMARK  171  A    between atoms: _418  and  _419
REMARK  172  A    between atoms: _418  and  _421
REMARK  173  A    between atoms: _421  and  _422
REMARK  174  A    between atoms: _422  and  _423
REMARK  175  A    between atoms: _428  and  _430
REMARK  176  A    between atoms: _430  and  _431
REMARK  177  A    between atoms: _430  and  _433
REMARK  178  A    between atoms: _436  and  _438
REMARK  179  A    between atoms: _438  and  _439
REMARK  180  A    between atoms: _438  and  _441
REMARK  181  A    between atoms: _441  and  _442
REMARK  182  A    between atoms: _445  and  _447
REMARK  183  A    between atoms: _447  and  _448
REMARK  184  A    between atoms: _447  and  _450
REMARK  185  A    between atoms: _450  and  _451
REMARK  186  A    between atoms: _453  and  _455
REMARK  187  A    between atoms: _455  and  _456
REMARK  188  A    between atoms: _458  and  _460
REMARK  189  A    between atoms: _460  and  _461
REMARK  190  A    between atoms: _460  and  _463
REMARK  191  A    between atoms: _463  and  _464
REMARK  192  A    between atoms: _464  and  _790
REMARK  193  A    between atoms: _465  and  _467
REMARK  194  A    between atoms: _467  and  _468
REMARK  195  A    between atoms: _467  and  _470
REMARK  196  A    between atoms: _470  and  _471
REMARK  197  A    between atoms: _476  and  _477
REMARK  198  A    between atoms: _479  and  _481
REMARK  199  A    between atoms: _481  and  _482
REMARK  200  A    between atoms: _481  and  _484
REMARK  201  A    between atoms: _484  and  _485
REMARK  202  A    between atoms: _485  and  _486
REMARK  203  A    between atoms: _491  and  _493
REMARK  204  A    between atoms: _493  and  _494
REMARK  205  A    between atoms: _493  and  _496
REMARK  206  A    between atoms: _496  and  _497
REMARK  207  A    between atoms: _497  and  _498
REMARK  208  A    between atoms: _503  and  _505
REMARK  209  A    between atoms: _505  and  _506
REMARK  210  A    between atoms: _505  and  _508
REMARK  211  A    between atoms: _508  and  _509
REMARK  212  A    between atoms: _514  and  _515
REMARK  213  A    between atoms: _517  and  _519
REMARK  214  A    between atoms: _519  and  _520
REMARK  215  A    between atoms: _523  and  _525
REMARK  216  A    between atoms: _525  and  _526
REMARK  217  A    between atoms: _525  and  _528
REMARK  218  A    between atoms: _528  and  _529
REMARK  219  A    between atoms: _534  and  _535
REMARK  220  A    between atoms: _537  and  _539
REMARK  221  A    between atoms: _539  and  _540
REMARK  222  A    between atoms: _539  and  _542
REMARK  223  A    between atoms: _542  and  _543
REMARK  224  A    between atoms: _548  and  _549
REMARK  225  A    between atoms: _551  and  _553
REMARK  226  A    between atoms: _553  and  _554
REMARK  227  A    between atoms: _553  and  _556
REMARK  228  A    between atoms: _556  and  _557
REMARK  229  A    between atoms: _560  and  _562
REMARK  230  A    between atoms: _562  and  _563
REMARK  231  A    between atoms: _562  and  _565
REMARK  232  A    between atoms: _565  and  _566
REMARK  233  A    between atoms: _576  and  _578
REMARK  234  A    between atoms: _578  and  _579
REMARK  235  A    between atoms: _582  and  _584
REMARK  236  A    between atoms: _584  and  _585
REMARK  237  A    between atoms: _588  and  _590
REMARK  238  A    between atoms: _590  and  _591
REMARK  239  A    between atoms: _590  and  _593
REMARK  240  A    between atoms: _593  and  _594
REMARK  241  A    between atoms: _597  and  _599
REMARK  242  A    between atoms: _599  and  _600
REMARK  243  A    between atoms: _599  and  _602
REMARK  244  A    between atoms: _602  and  _603
REMARK  245  A    between atoms: _606  and  _608
REMARK  246  A    between atoms: _608  and  _609
REMARK  247  A    between atoms: _608  and  _611
REMARK  248  A    between atoms: _611  and  _612
REMARK  249  A    between atoms: _615  and  _617
REMARK  250  A    between atoms: _617  and  _618
REMARK  251  A    between atoms: _617  and  _620
REMARK  252  A    between atoms: _620  and  _621
REMARK  253  A    between atoms: _621  and  _622
REMARK  254  A    between atoms: _622  and  _623
REMARK  255  A    between atoms: _623  and  _624
REMARK  256  A    between atoms: _628  and  _630
REMARK  257  A    between atoms: _630  and  _631
REMARK  258  A    between atoms: _630  and  _633
REMARK  259  A    between atoms: _633  and  _634
REMARK  260  A    between atoms: _639  and  _641
REMARK  261  A    between atoms: _641  and  _642
REMARK  262  A    between atoms: _641  and  _644
REMARK  263  A    between atoms: _644  and  _645
REMARK  264  A    between atoms: _645  and  _646
REMARK  265  A    between atoms: _646  and  _647
REMARK  266  A    between atoms: _647  and  _648
REMARK  267  A    between atoms: _652  and  _654
REMARK  268  A    between atoms: _654  and  _655
REMARK  269  A    between atoms: _654  and  _657
REMARK  270  A    between atoms: _657  and  _658
REMARK  271  A    between atoms: _668  and  _670
REMARK  272  A    between atoms: _670  and  _671
REMARK  273  A    between atoms: _674  and  _676
REMARK  274  A    between atoms: _676  and  _677
REMARK  275  A    between atoms: _679  and  _681
REMARK  276  A    between atoms: _681  and  _682
REMARK  277  A    between atoms: _685  and  _687
REMARK  278  A    between atoms: _687  and  _688
REMARK  279  A    between atoms: _691  and  _693
REMARK  280  A    between atoms: _693  and  _694
REMARK  281  A    between atoms: _693  and  _696
REMARK  282  A    between atoms: _696  and  _697
REMARK  283  A    between atoms: _697  and  _698
REMARK  284  A    between atoms: _701  and  _703
REMARK  285  A    between atoms: _703  and  _704
REMARK  286  A    between atoms: _703  and  _706
REMARK  287  A    between atoms: _706  and  _707
REMARK  288  A    between atoms: _712  and  _713
REMARK  289  A    between atoms: _715  and  _717
REMARK  290  A    between atoms: _717  and  _718
REMARK  291  A    between atoms: _717  and  _720
REMARK  292  A    between atoms: _720  and  _721
REMARK  293  A    between atoms: _726  and  _727
REMARK  294  A    between atoms: _729  and  _731
REMARK  295  A    between atoms: _731  and  _732
REMARK  296  A    between atoms: _731  and  _734
REMARK  297  A    between atoms: _734  and  _735
REMARK  298  A    between atoms: _735  and  _736
REMARK  299  A    between atoms: _736  and  _737
REMARK  300  A    between atoms: _746  and  _748
REMARK  301  A    between atoms: _748  and  _749
REMARK  302  A    between atoms: _752  and  _754
REMARK  303  A    between atoms: _754  and  _755
REMARK  304  A    between atoms: _754  and  _757
REMARK  305  A    between atoms: _757  and  _758
REMARK  306  A    between atoms: _763  and  _764
REMARK  307  A    between atoms: _766  and  _768
REMARK  308  A    between atoms: _768  and  _769
REMARK  309  A    between atoms: _768  and  _771
REMARK  310  A    between atoms: _771  and  _772
REMARK  311  A    between atoms: _775  and  _777
REMARK  312  A    between atoms: _777  and  _778
REMARK  313  A    between atoms: _777  and  _780
REMARK  314  A    between atoms: _780  and  _781
REMARK  315  A    between atoms: _784  and  _786
REMARK  316  A    between atoms: _786  and  _787
REMARK  317  A    between atoms: _786  and  _789
REMARK  318  A    between atoms: _789  and  _790
REMARK  319  A    between atoms: _791  and  _793
REMARK  320  A    between atoms: _793  and  _794
REMARK  321  A    between atoms: _793  and  _796
REMARK  322  A    between atoms: _799  and  _801
REMARK  323  A    between atoms: _801  and  _802
REMARK  324  A    between atoms: _801  and  _804
REMARK  325  A    between atoms: _804  and  _805
REMARK  326  A    between atoms: _805  and  _806
REMARK  327  A    between atoms: _809  and  _811
REMARK  328  A    between atoms: _811  and  _812
REMARK  329  A    between atoms: _811  and  _814
REMARK  330  A    between atoms: _814  and  _815
REMARK  331  A    between atoms: _825  and  _827
REMARK  332  A    between atoms: _827  and  _828
REMARK  333  A    between atoms: _827  and  _830
REMARK  334  A    between atoms: _830  and  _831
REMARK  335  A    between atoms: _834  and  _836
REMARK  336  A    between atoms: _836  and  _837
REMARK  337  A    between atoms: _836  and  _839
REMARK  338  A    between atoms: _839  and  _840
REMARK  339  A    between atoms: _840  and  _841
REMARK  340  A    between atoms: _841  and  _842
REMARK  341  A    between atoms: _851  and  _853
REMARK  342  A    between atoms: _853  and  _854
REMARK  343  A    between atoms: _853  and  _856
REMARK  344  A    between atoms: _856  and  _857
REMARK  345  A    between atoms: _862  and  _863
REMARK                            x       y       z     vdW  Elec       q    Type
REMARK                         _______ _______ _______ _____ _____    ______ ____
ROOT
ATOM      1  O   HOH     1      42.441  63.462 -12.319  0.00  0.00    +0.000 OA
ENDROOT
TORSDOF 0
REMARK  Name = ../refined-set-2016/1fzj/1fzj_pocket.pdb
REMARK  345 active torsions:
REMARK  status: ('A' for Active; 'I' for Inactive)
REMARK    1  A    between atoms: _1  and  _3
REMARK    2  A    between atoms: _3  and  _4
REMARK    3  A    between atoms: _3  and  _6
REMARK    4  A    between atoms: _6  and  _7
REMARK    5  A    between atoms: _10  and  _12
REMARK    6  A    between atoms: _12  and  _13
REMARK    7  A    between atoms: _12  and  _15
REMARK    8  A    between atoms: _15  and  _16
REMARK    9  A    between atoms: _16  and  _17
REMARK   10  A    between atoms: _17  and  _18
REMARK   11  A    between atoms: _27  and  _29
REMARK   12  A    between atoms: _29  and  _30
REMARK   13  A    between atoms: _29  and  _32
REMARK   14  A    between atoms: _32  and  _33
REMARK   15  A    between atoms: _38  and  _39
REMARK   16  A    between atoms: _41  and  _43
REMARK   17  A    between atoms: _43  and  _44
REMARK   18  A    between atoms: _43  and  _46
REMARK   19  A    between atoms: _46  and  _47
REMARK   20  A    between atoms: _53  and  _55
REMARK   21  A    between atoms: _55  and  _56
REMARK   22  A    between atoms: _55  and  _58
REMARK   23  A    between atoms: _61  and  _63
REMARK   24  A    between atoms: _63  and  _64
REMARK   25  A    between atoms: _63  and  _66
REMARK   26  A    between atoms: _66  and  _67
REMARK   27  A    between atoms: _70  and  _72
REMARK   28  A    between atoms: _72  and  _73
REMARK   29  A    between atoms: _72  and  _75
REMARK   30  A    between atoms: _75  and  _76
REMARK   31  A    between atoms: _81  and  _82
REMARK   32  A    between atoms: _84  and  _86
REMARK   33  A    between atoms: _86  and  _87
REMARK   34  A    between atoms: _86  and  _89
REMARK   35  A    between atoms: _89  and  _90
REMARK   36  A    between atoms: _90  and  _91
REMARK   37  A    between atoms: _93  and  _95
REMARK   38  A    between atoms: _95  and  _96
REMARK   39  A    between atoms: _95  and  _98
REMARK   40  A    between atoms: _98  and  _99
REMARK   41  A    between atoms: _99  and  _100
REMARK   42  A    between atoms: _103  and  _105
REMARK   43  A    between atoms: _105  and  _106
REMARK   44  A    between atoms: _105  and  _108
REMARK   45  A    between atoms: _111  and  _113
REMARK   46  A    between atoms: _113  and  _114
REMARK   47  A    between atoms: _113  and  _116
REMARK   48  A    between atoms: _119  and  _121
REMARK   49  A    between atoms: _121  and  _122
REMARK   50  A    between atoms: _121  and  _124
REMARK   51  A    between atoms: _124  and  _125
REMARK   52  A    between atoms: _131  and  _133
REMARK   53  A    between atoms: _133  and  _134
REMARK   54  A    between atoms: _133  and  _136
REMARK   55  A    between atoms: _139  and  _141
REMARK   56  A    between atoms: _141  and  _142
REMARK   57  A    between atoms: _141  and  _144
REMARK   58  A    between atoms: _144  and  _145
REMARK   59  A    between atoms: _150  and  _151
REMARK   60  A    between atoms: _153  and  _155
REMARK   61  A    between atoms: _155  and  _156
REMARK   62  A    between atoms: _155  and  _158
REMARK   63  A    between atoms: _158  and  _159
REMARK   64  A    between atoms: _159  and  _160
REMARK   65  A    between atoms: _162  and  _164
REMARK   66  A    between atoms: _164  and  _165
REMARK   67  A    between atoms: _164  and  _167
REMARK   68  A    between atoms: _167  and  _168
REMARK   69  A    between atoms: _168  and  _169
REMARK   70  A    between atoms: _172  and  _174
REMARK   71  A    between atoms: _174  and  _175
REMARK   72  A    between atoms: _174  and  _177
REMARK   73  A    between atoms: _177  and  _178
REMARK   74  A    between atoms: _178  and  _179
REMARK   75  A    between atoms: _182  and  _184
REMARK   76  A    between atoms: _184  and  _185
REMARK   77  A    between atoms: _184  and  _187
REMARK   78  A    between atoms: _187  and  _188
REMARK   79  A    between atoms: _193  and  _194
REMARK   80  A    between atoms: _196  and  _198
REMARK   81  A    between atoms: _198  and  _199
REMARK   82  A    between atoms: _198  and  _201
REMARK   83  A    between atoms: _201  and  _202
REMARK   84  A    between atoms: _212  and  _214
REMARK   85  A    between atoms: _214  and  _215
REMARK   86  A    between atoms: _214  and  _217
REMARK   87  A    between atoms: _217  and  _218
REMARK   88  A    between atoms: _218  and  _219
REMARK   89  A    between atoms: _222  and  _224
REMARK   90  A    between atoms: _224  and  _225
REMARK   91  A    between atoms: _224  and  _227
REMARK   92  A    between atoms: _227  and  _228
REMARK   93  A    between atoms: _228  and  _229
REMARK   94  A    between atoms: _229  and  _230
REMARK   95  A    between atoms: _239  and  _241
REMARK   96  A    between atoms: _241  and  _242
REMARK   97  A    between atoms: _241  and  _244
REMARK   98  A    between atoms: _244  and  _245
REMARK   99  A    between atoms: _245  and  _246
REMARK  100  A    between atoms: _249  and  _251
REMARK  101  A    between atoms: _251  and  _252
REMARK  102  A    between atoms: _251  and  _254
REMARK  103  A    between atoms: _254  and  _255
REMARK  104  A    between atoms: _258  and  _260
REMARK  105  A    between atoms: _260  and  _261
REMARK  106  A    between atoms: _260  and  _263
REMARK  107  A    between atoms: _263  and  _264
REMARK  108  A    between atoms: _264  and  _265
REMARK  109  A    between atoms: _270  and  _272
REMARK  110  A    between atoms: _272  and  _273
REMARK  111  A    between atoms: _272  and  _275
REMARK  112  A    between atoms: _275  and  _276
REMARK  113  A    between atoms: _276  and  _277
REMARK  114  A    between atoms: _277  and  _278
REMARK  115  A    between atoms: _278  and  _279
REMARK  116  A    between atoms: _283  and  _285
REMARK  117  A    between atoms: _285  and  _286
REMARK  118  A    between atoms: _289  and  _291
REMARK  119  A    between atoms: _291  and  _292
REMARK  120  A    between atoms: _294  and  _296
REMARK  121  A    between atoms: _296  and  _297
REMARK  122  A    between atoms: _296  and  _299
REMARK  123  A    between atoms: _299  and  _300
REMARK  124  A    between atoms: _305  and  _307
REMARK  125  A    between atoms: _307  and  _308
REMARK  126  A    between atoms: _307  and  _310
REMARK  127  A    between atoms: _310  and  _311
REMARK  128  A    between atoms: _311  and  _312
REMARK  129  A    between atoms: _315  and  _317
REMARK  130  A    between atoms: _317  and  _318
REMARK  131  A    between atoms: _317  and  _320
REMARK  132  A    between atoms: _320  and  _321
REMARK  133  A    between atoms: _323  and  _325
REMARK  134  A    between atoms: _325  and  _326
REMARK  135  A    between atoms: _325  and  _328
REMARK  136  A    between atoms: _328  and  _329
REMARK  137  A    between atoms: _335  and  _337
REMARK  138  A    between atoms: _337  and  _338
REMARK  139  A    between atoms: _337  and  _340
REMARK  140  A    between atoms: _343  and  _345
REMARK  141  A    between atoms: _345  and  _346
REMARK  142  A    between atoms: _345  and  _348
REMARK  143  A    between atoms: _348  and  _349
REMARK  144  A    between atoms: _352  and  _354
REMARK  145  A    between atoms: _354  and  _355
REMARK  146  A    between atoms: _354  and  _357
REMARK  147  A    between atoms: _357  and  _358
REMARK  148  A    between atoms: _361  and  _363
REMARK  149  A    between atoms: _363  and  _364
REMARK  150  A    between atoms: _363  and  _366
REMARK  151  A    between atoms: _366  and  _367
REMARK  152  A    between atoms: _370  and  _372
REMARK  153  A    between atoms: _372  and  _373
REMARK  154  A    between atoms: _372  and  _375
REMARK  155  A    between atoms: _375  and  _376
REMARK  156  A    between atoms: _379  and  _381
REMARK  157  A    between atoms: _381  and  _382
REMARK  158  A    between atoms: _381  and  _384
REMARK  159  A    between atoms: _384  and  _385
REMARK  160  A    between atoms: _390  and  _391
REMARK  161  A    between atoms: _393  and  _395
REMARK  162  A    between atoms: _395  and  _396
REMARK  163  A    between atoms: _395  and  _398
REMARK  164  A    between atoms: _398  and  _399
REMARK  165  A    between atoms: _404  and  _405
REMARK  166  A    between atoms: _407  and  _409
REMARK  167  A    between atoms: _409  and  _410
REMARK  168  A    between atoms: _409  and  _412
REMARK  169  A    between atoms: _412  and  _413
REMARK  170  A    between atoms: _416  and  _418
REMARK  171  A    between atoms: _418  and  _419
REMARK  172  A    between atoms: _418  and  _421
REMARK  173  A    between atoms: _421  and  _422
REMARK  174  A    between atoms: _422  and  _423
REMARK  175  A    between atoms: _428  and  _430
REMARK  176  A    between atoms: _430  and  _431
REMARK  177  A    between atoms: _430  and  _433
REMARK  178  A    between atoms: _436  and  _438
REMARK  179  A    between atoms: _438  and  _439
REMARK  180  A    between atoms: _438  and  _441
REMARK  181  A    between atoms: _441  and  _442
REMARK  182  A    between atoms: _445  and  _447
REMARK  183  A    between atoms: _447  and  _448
REMARK  184  A    between atoms: _447  and  _450
REMARK  185  A    between atoms: _450  and  _451
REMARK  186  A    between atoms: _453  and  _455
REMARK  187  A    between atoms: _455  and  _456
REMARK  188  A    between atoms: _458  and  _460
REMARK  189  A    between atoms: _460  and  _461
REMARK  190  A    between atoms: _460  and  _463
REMARK  191  A    between atoms: _463  and  _464
REMARK  192  A    between atoms: _464  and  _790
REMARK  193  A    between atoms: _465  and  _467
REMARK  194  A    between atoms: _467  and  _468
REMARK  195  A    between atoms: _467  and  _470
REMARK  196  A    between atoms: _470  and  _471
REMARK  197  A    between atoms: _476  and  _477
REMARK  198  A    between atoms: _479  and  _481
REMARK  199  A    between atoms: _481  and  _482
REMARK  200  A    between atoms: _481  and  _484
REMARK  201  A    between atoms: _484  and  _485
REMARK  202  A    between atoms: _485  and  _486
REMARK  203  A    between atoms: _491  and  _493
REMARK  204  A    between atoms: _493  and  _494
REMARK  205  A    between atoms: _493  and  _496
REMARK  206  A    between atoms: _496  and  _497
REMARK  207  A    between atoms: _497  and  _498
REMARK  208  A    between atoms: _503  and  _505
REMARK  209  A    between atoms: _505  and  _506
REMARK  210  A    between atoms: _505  and  _508
REMARK  211  A    between atoms: _508  and  _509
REMARK  212  A    between atoms: _514  and  _515
REMARK  213  A    between atoms: _517  and  _519
REMARK  214  A    between atoms: _519  and  _520
REMARK  215  A    between atoms: _523  and  _525
REMARK  216  A    between atoms: _525  and  _526
REMARK  217  A    between atoms: _525  and  _528
REMARK  218  A    between atoms: _528  and  _529
REMARK  219  A    between atoms: _534  and  _535
REMARK  220  A    between atoms: _537  and  _539
REMARK  221  A    between atoms: _539  and  _540
REMARK  222  A    between atoms: _539  and  _542
REMARK  223  A    between atoms: _542  and  _543
REMARK  224  A    between atoms: _548  and  _549
REMARK  225  A    between atoms: _551  and  _553
REMARK  226  A    between atoms: _553  and  _554
REMARK  227  A    between atoms: _553  and  _556
REMARK  228  A    between atoms: _556  and  _557
REMARK  229  A    between atoms: _560  and  _562
REMARK  230  A    between atoms: _562  and  _563
REMARK  231  A    between atoms: _562  and  _565
REMARK  232  A    between atoms: _565  and  _566
REMARK  233  A    between atoms: _576  and  _578
REMARK  234  A    between atoms: _578  and  _579
REMARK  235  A    between atoms: _582  and  _584
REMARK  236  A    between atoms: _584  and  _585
REMARK  237  A    between atoms: _588  and  _590
REMARK  238  A    between atoms: _590  and  _591
REMARK  239  A    between atoms: _590  and  _593
REMARK  240  A    between atoms: _593  and  _594
REMARK  241  A    between atoms: _597  and  _599
REMARK  242  A    between atoms: _599  and  _600
REMARK  243  A    between atoms: _599  and  _602
REMARK  244  A    between atoms: _602  and  _603
REMARK  245  A    between atoms: _606  and  _608
REMARK  246  A    between atoms: _608  and  _609
REMARK  247  A    between atoms: _608  and  _611
REMARK  248  A    between atoms: _611  and  _612
REMARK  249  A    between atoms: _615  and  _617
REMARK  250  A    between atoms: _617  and  _618
REMARK  251  A    between atoms: _617  and  _620
REMARK  252  A    between atoms: _620  and  _621
REMARK  253  A    between atoms: _621  and  _622
REMARK  254  A    between atoms: _622  and  _623
REMARK  255  A    between atoms: _623  and  _624
REMARK  256  A    between atoms: _628  and  _630
REMARK  257  A    between atoms: _630  and  _631
REMARK  258  A    between atoms: _630  and  _633
REMARK  259  A    between atoms: _633  and  _634
REMARK  260  A    between atoms: _639  and  _641
REMARK  261  A    between atoms: _641  and  _642
REMARK  262  A    between atoms: _641  and  _644
REMARK  263  A    between atoms: _644  and  _645
REMARK  264  A    between atoms: _645  and  _646
REMARK  265  A    between atoms: _646  and  _647
REMARK  266  A    between atoms: _647  and  _648
REMARK  267  A    between atoms: _652  and  _654
REMARK  268  A    between atoms: _654  and  _655
REMARK  269  A    between atoms: _654  and  _657
REMARK  270  A    between atoms: _657  and  _658
REMARK  271  A    between atoms: _668  and  _670
REMARK  272  A    between atoms: _670  and  _671
REMARK  273  A    between atoms: _674  and  _676
REMARK  274  A    between atoms: _676  and  _677
REMARK  275  A    between atoms: _679  and  _681
REMARK  276  A    between atoms: _681  and  _682
REMARK  277  A    between atoms: _685  and  _687
REMARK  278  A    between atoms: _687  and  _688
REMARK  279  A    between atoms: _691  and  _693
REMARK  280  A    between atoms: _693  and  _694
REMARK  281  A    between atoms: _693  and  _696
REMARK  282  A    between atoms: _696  and  _697
REMARK  283  A    between atoms: _697  and  _698
REMARK  284  A    between atoms: _701  and  _703
REMARK  285  A    between atoms: _703  and  _704
REMARK  286  A    between atoms: _703  and  _706
REMARK  287  A    between atoms: _706  and  _707
REMARK  288  A    between atoms: _712  and  _713
REMARK  289  A    between atoms: _715  and  _717
REMARK  290  A    between atoms: _717  and  _718
REMARK  291  A    between atoms: _717  and  _720
REMARK  292  A    between atoms: _720  and  _721
REMARK  293  A    between atoms: _726  and  _727
REMARK  294  A    between atoms: _729  and  _731
REMARK  295  A    between atoms: _731  and  _732
REMARK  296  A    between atoms: _731  and  _734
REMARK  297  A    between atoms: _734  and  _735
REMARK  298  A    between atoms: _735  and  _736
REMARK  299  A    between atoms: _736  and  _737
REMARK  300  A    between atoms: _746  and  _748
REMARK  301  A    between atoms: _748  and  _749
REMARK  302  A    between atoms: _752  and  _754
REMARK  303  A    between atoms: _754  and  _755
REMARK  304  A    between atoms: _754  and  _757
REMARK  305  A    between atoms: _757  and  _758
REMARK  306  A    between atoms: _763  and  _764
REMARK  307  A    between atoms: _766  and  _768
REMARK  308  A    between atoms: _768  and  _769
REMARK  309  A    between atoms: _768  and  _771
REMARK  310  A    between atoms: _771  and  _772
REMARK  311  A    between atoms: _775  and  _777
REMARK  312  A    between atoms: _777  and  _778
REMARK  313  A    between atoms: _777  and  _780
REMARK  314  A    between atoms: _780  and  _781
REMARK  315  A    between atoms: _784  and  _786
REMARK  316  A    between atoms: _786  and  _787
REMARK  317  A    between atoms: _786  and  _789
REMARK  318  A    between atoms: _789  and  _790
REMARK  319  A    between atoms: _791  and  _793
REMARK  320  A    between atoms: _793  and  _794
REMARK  321  A    between atoms: _793  and  _796
REMARK  322  A    between atoms: _799  and  _801
REMARK  323  A    between atoms: _801  and  _802
REMARK  324  A    between atoms: _801  and  _804
REMARK  325  A    between atoms: _804  and  _805
REMARK  326  A    between atoms: _805  and  _806
REMARK  327  A    between atoms: _809  and  _811
REMARK  328  A    between atoms: _811  and  _812
REMARK  329  A    between atoms: _811  and  _814
REMARK  330  A    between atoms: _814  and  _815
REMARK  331  A    between atoms: _825  and  _827
REMARK  332  A    between atoms: _827  and  _828
REMARK  333  A    between atoms: _827  and  _830
REMARK  334  A    between atoms: _830  and  _831
REMARK  335  A    between atoms: _834  and  _836
REMARK  336  A    between atoms: _836  and  _837
REMARK  337  A    between atoms: _836  and  _839
REMARK  338  A    between atoms: _839  and  _840
REMARK  339  A    between atoms: _840  and  _841
REMARK  340  A    between atoms: _841  and  _842
REMARK  341  A    between atoms: _851  and  _853
REMARK  342  A    between atoms: _853  and  _854
REMARK  343  A    between atoms: _853  and  _856
REMARK  344  A    between atoms: _856  and  _857
REMARK  345  A    between atoms: _862  and  _863
REMARK                            x       y       z     vdW  Elec       q    Type
REMARK                         _______ _______ _______ _____ _____    ______ ____
ROOT
ATOM      1  O   HOH     1      45.919  62.551  -2.512  0.00  0.00    +0.000 OA
ENDROOT
TORSDOF 0
REMARK  Name = ../refined-set-2016/1fzj/1fzj_pocket.pdb
REMARK  345 active torsions:
REMARK  status: ('A' for Active; 'I' for Inactive)
REMARK    1  A    between atoms: _1  and  _3
REMARK    2  A    between atoms: _3  and  _4
REMARK    3  A    between atoms: _3  and  _6
REMARK    4  A    between atoms: _6  and  _7
REMARK    5  A    between atoms: _10  and  _12
REMARK    6  A    between atoms: _12  and  _13
REMARK    7  A    between atoms: _12  and  _15
REMARK    8  A    between atoms: _15  and  _16
REMARK    9  A    between atoms: _16  and  _17
REMARK   10  A    between atoms: _17  and  _18
REMARK   11  A    between atoms: _27  and  _29
REMARK   12  A    between atoms: _29  and  _30
REMARK   13  A    between atoms: _29  and  _32
REMARK   14  A    between atoms: _32  and  _33
REMARK   15  A    between atoms: _38  and  _39
REMARK   16  A    between atoms: _41  and  _43
REMARK   17  A    between atoms: _43  and  _44
REMARK   18  A    between atoms: _43  and  _46
REMARK   19  A    between atoms: _46  and  _47
REMARK   20  A    between atoms: _53  and  _55
REMARK   21  A    between atoms: _55  and  _56
REMARK   22  A    between atoms: _55  and  _58
REMARK   23  A    between atoms: _61  and  _63
REMARK   24  A    between atoms: _63  and  _64
REMARK   25  A    between atoms: _63  and  _66
REMARK   26  A    between atoms: _66  and  _67
REMARK   27  A    between atoms: _70  and  _72
REMARK   28  A    between atoms: _72  and  _73
REMARK   29  A    between atoms: _72  and  _75
REMARK   30  A    between atoms: _75  and  _76
REMARK   31  A    between atoms: _81  and  _82
REMARK   32  A    between atoms: _84  and  _86
REMARK   33  A    between atoms: _86  and  _87
REMARK   34  A    between atoms: _86  and  _89
REMARK   35  A    between atoms: _89  and  _90
REMARK   36  A    between atoms: _90  and  _91
REMARK   37  A    between atoms: _93  and  _95
REMARK   38  A    between atoms: _95  and  _96
REMARK   39  A    between atoms: _95  and  _98
REMARK   40  A    between atoms: _98  and  _99
REMARK   41  A    between atoms: _99  and  _100
REMARK   42  A    between atoms: _103  and  _105
REMARK   43  A    between atoms: _105  and  _106
REMARK   44  A    between atoms: _105  and  _108
REMARK   45  A    between atoms: _111  and  _113
REMARK   46  A    between atoms: _113  and  _114
REMARK   47  A    between atoms: _113  and  _116
REMARK   48  A    between atoms: _119  and  _121
REMARK   49  A    between atoms: _121  and  _122
REMARK   50  A    between atoms: _121  and  _124
REMARK   51  A    between atoms: _124  and  _125
REMARK   52  A    between atoms: _131  and  _133
REMARK   53  A    between atoms: _133  and  _134
REMARK   54  A    between atoms: _133  and  _136
REMARK   55  A    between atoms: _139  and  _141
REMARK   56  A    between atoms: _141  and  _142
REMARK   57  A    between atoms: _141  and  _144
REMARK   58  A    between atoms: _144  and  _145
REMARK   59  A    between atoms: _150  and  _151
REMARK   60  A    between atoms: _153  and  _155
REMARK   61  A    between atoms: _155  and  _156
REMARK   62  A    between atoms: _155  and  _158
REMARK   63  A    between atoms: _158  and  _159
REMARK   64  A    between atoms: _159  and  _160
REMARK   65  A    between atoms: _162  and  _164
REMARK   66  A    between atoms: _164  and  _165
REMARK   67  A    between atoms: _164  and  _167
REMARK   68  A    between atoms: _167  and  _168
REMARK   69  A    between atoms: _168  and  _169
REMARK   70  A    between atoms: _172  and  _174
REMARK   71  A    between atoms: _174  and  _175
REMARK   72  A    between atoms: _174  and  _177
REMARK   73  A    between atoms: _177  and  _178
REMARK   74  A    between atoms: _178  and  _179
REMARK   75  A    between atoms: _182  and  _184
REMARK   76  A    between atoms: _184  and  _185
REMARK   77  A    between atoms: _184  and  _187
REMARK   78  A    between atoms: _187  and  _188
REMARK   79  A    between atoms: _193  and  _194
REMARK   80  A    between atoms: _196  and  _198
REMARK   81  A    between atoms: _198  and  _199
REMARK   82  A    between atoms: _198  and  _201
REMARK   83  A    between atoms: _201  and  _202
REMARK   84  A    between atoms: _212  and  _214
REMARK   85  A    between atoms: _214  and  _215
REMARK   86  A    between atoms: _214  and  _217
REMARK   87  A    between atoms: _217  and  _218
REMARK   88  A    between atoms: _218  and  _219
REMARK   89  A    between atoms: _222  and  _224
REMARK   90  A    between atoms: _224  and  _225
REMARK   91  A    between atoms: _224  and  _227
REMARK   92  A    between atoms: _227  and  _228
REMARK   93  A    between atoms: _228  and  _229
REMARK   94  A    between atoms: _229  and  _230
REMARK   95  A    between atoms: _239  and  _241
REMARK   96  A    between atoms: _241  and  _242
REMARK   97  A    between atoms: _241  and  _244
REMARK   98  A    between atoms: _244  and  _245
REMARK   99  A    between atoms: _245  and  _246
REMARK  100  A    between atoms: _249  and  _251
REMARK  101  A    between atoms: _251  and  _252
REMARK  102  A    between atoms: _251  and  _254
REMARK  103  A    between atoms: _254  and  _255
REMARK  104  A    between atoms: _258  and  _260
REMARK  105  A    between atoms: _260  and  _261
REMARK  106  A    between atoms: _260  and  _263
REMARK  107  A    between atoms: _263  and  _264
REMARK  108  A    between atoms: _264  and  _265
REMARK  109  A    between atoms: _270  and  _272
REMARK  110  A    between atoms: _272  and  _273
REMARK  111  A    between atoms: _272  and  _275
REMARK  112  A    between atoms: _275  and  _276
REMARK  113  A    between atoms: _276  and  _277
REMARK  114  A    between atoms: _277  and  _278
REMARK  115  A    between atoms: _278  and  _279
REMARK  116  A    between atoms: _283  and  _285
REMARK  117  A    between atoms: _285  and  _286
REMARK  118  A    between atoms: _289  and  _291
REMARK  119  A    between atoms: _291  and  _292
REMARK  120  A    between atoms: _294  and  _296
REMARK  121  A    between atoms: _296  and  _297
REMARK  122  A    between atoms: _296  and  _299
REMARK  123  A    between atoms: _299  and  _300
REMARK  124  A    between atoms: _305  and  _307
REMARK  125  A    between atoms: _307  and  _308
REMARK  126  A    between atoms: _307  and  _310
REMARK  127  A    between atoms: _310  and  _311
REMARK  128  A    between atoms: _311  and  _312
REMARK  129  A    between atoms: _315  and  _317
REMARK  130  A    between atoms: _317  and  _318
REMARK  131  A    between atoms: _317  and  _320
REMARK  132  A    between atoms: _320  and  _321
REMARK  133  A    between atoms: _323  and  _325
REMARK  134  A    between atoms: _325  and  _326
REMARK  135  A    between atoms: _325  and  _328
REMARK  136  A    between atoms: _328  and  _329
REMARK  137  A    between atoms: _335  and  _337
REMARK  138  A    between atoms: _337  and  _338
REMARK  139  A    between atoms: _337  and  _340
REMARK  140  A    between atoms: _343  and  _345
REMARK  141  A    between atoms: _345  and  _346
REMARK  142  A    between atoms: _345  and  _348
REMARK  143  A    between atoms: _348  and  _349
REMARK  144  A    between atoms: _352  and  _354
REMARK  145  A    between atoms: _354  and  _355
REMARK  146  A    between atoms: _354  and  _357
REMARK  147  A    between atoms: _357  and  _358
REMARK  148  A    between atoms: _361  and  _363
REMARK  149  A    between atoms: _363  and  _364
REMARK  150  A    between atoms: _363  and  _366
REMARK  151  A    between atoms: _366  and  _367
REMARK  152  A    between atoms: _370  and  _372
REMARK  153  A    between atoms: _372  and  _373
REMARK  154  A    between atoms: _372  and  _375
REMARK  155  A    between atoms: _375  and  _376
REMARK  156  A    between atoms: _379  and  _381
REMARK  157  A    between atoms: _381  and  _382
REMARK  158  A    between atoms: _381  and  _384
REMARK  159  A    between atoms: _384  and  _385
REMARK  160  A    between atoms: _390  and  _391
REMARK  161  A    between atoms: _393  and  _395
REMARK  162  A    between atoms: _395  and  _396
REMARK  163  A    between atoms: _395  and  _398
REMARK  164  A    between atoms: _398  and  _399
REMARK  165  A    between atoms: _404  and  _405
REMARK  166  A    between atoms: _407  and  _409
REMARK  167  A    between atoms: _409  and  _410
REMARK  168  A    between atoms: _409  and  _412
REMARK  169  A    between atoms: _412  and  _413
REMARK  170  A    between atoms: _416  and  _418
REMARK  171  A    between atoms: _418  and  _419
REMARK  172  A    between atoms: _418  and  _421
REMARK  173  A    between atoms: _421  and  _422
REMARK  174  A    between atoms: _422  and  _423
REMARK  175  A    between atoms: _428  and  _430
REMARK  176  A    between atoms: _430  and  _431
REMARK  177  A    between atoms: _430  and  _433
REMARK  178  A    between atoms: _436  and  _438
REMARK  179  A    between atoms: _438  and  _439
REMARK  180  A    between atoms: _438  and  _441
REMARK  181  A    between atoms: _441  and  _442
REMARK  182  A    between atoms: _445  and  _447
REMARK  183  A    between atoms: _447  and  _448
REMARK  184  A    between atoms: _447  and  _450
REMARK  185  A    between atoms: _450  and  _451
REMARK  186  A    between atoms: _453  and  _455
REMARK  187  A    between atoms: _455  and  _456
REMARK  188  A    between atoms: _458  and  _460
REMARK  189  A    between atoms: _460  and  _461
REMARK  190  A    between atoms: _460  and  _463
REMARK  191  A    between atoms: _463  and  _464
REMARK  192  A    between atoms: _464  and  _790
REMARK  193  A    between atoms: _465  and  _467
REMARK  194  A    between atoms: _467  and  _468
REMARK  195  A    between atoms: _467  and  _470
REMARK  196  A    between atoms: _470  and  _471
REMARK  197  A    between atoms: _476  and  _477
REMARK  198  A    between atoms: _479  and  _481
REMARK  199  A    between atoms: _481  and  _482
REMARK  200  A    between atoms: _481  and  _484
REMARK  201  A    between atoms: _484  and  _485
REMARK  202  A    between atoms: _485  and  _486
REMARK  203  A    between atoms: _491  and  _493
REMARK  204  A    between atoms: _493  and  _494
REMARK  205  A    between atoms: _493  and  _496
REMARK  206  A    between atoms: _496  and  _497
REMARK  207  A    between atoms: _497  and  _498
REMARK  208  A    between atoms: _503  and  _505
REMARK  209  A    between atoms: _505  and  _506
REMARK  210  A    between atoms: _505  and  _508
REMARK  211  A    between atoms: _508  and  _509
REMARK  212  A    between atoms: _514  and  _515
REMARK  213  A    between atoms: _517  and  _519
REMARK  214  A    between atoms: _519  and  _520
REMARK  215  A    between atoms: _523  and  _525
REMARK  216  A    between atoms: _525  and  _526
REMARK  217  A    between atoms: _525  and  _528
REMARK  218  A    between atoms: _528  and  _529
REMARK  219  A    between atoms: _534  and  _535
REMARK  220  A    between atoms: _537  and  _539
REMARK  221  A    between atoms: _539  and  _540
REMARK  222  A    between atoms: _539  and  _542
REMARK  223  A    between atoms: _542  and  _543
REMARK  224  A    between atoms: _548  and  _549
REMARK  225  A    between atoms: _551  and  _553
REMARK  226  A    between atoms: _553  and  _554
REMARK  227  A    between atoms: _553  and  _556
REMARK  228  A    between atoms: _556  and  _557
REMARK  229  A    between atoms: _560  and  _562
REMARK  230  A    between atoms: _562  and  _563
REMARK  231  A    between atoms: _562  and  _565
REMARK  232  A    between atoms: _565  and  _566
REMARK  233  A    between atoms: _576  and  _578
REMARK  234  A    between atoms: _578  and  _579
REMARK  235  A    between atoms: _582  and  _584
REMARK  236  A    between atoms: _584  and  _585
REMARK  237  A    between atoms: _588  and  _590
REMARK  238  A    between atoms: _590  and  _591
REMARK  239  A    between atoms: _590  and  _593
REMARK  240  A    between atoms: _593  and  _594
REMARK  241  A    between atoms: _597  and  _599
REMARK  242  A    between atoms: _599  and  _600
REMARK  243  A    between atoms: _599  and  _602
REMARK  244  A    between atoms: _602  and  _603
REMARK  245  A    between atoms: _606  and  _608
REMARK  246  A    between atoms: _608  and  _609
REMARK  247  A    between atoms: _608  and  _611
REMARK  248  A    between atoms: _611  and  _612
REMARK  249  A    between atoms: _615  and  _617
REMARK  250  A    between atoms: _617  and  _618
REMARK  251  A    between atoms: _617  and  _620
REMARK  252  A    between atoms: _620  and  _621
REMARK  253  A    between atoms: _621  and  _622
REMARK  254  A    between atoms: _622  and  _623
REMARK  255  A    between atoms: _623  and  _624
REMARK  256  A    between atoms: _628  and  _630
REMARK  257  A    between atoms: _630  and  _631
REMARK  258  A    between atoms: _630  and  _633
REMARK  259  A    between atoms: _633  and  _634
REMARK  260  A    between atoms: _639  and  _641
REMARK  261  A    between atoms: _641  and  _642
REMARK  262  A    between atoms: _641  and  _644
REMARK  263  A    between atoms: _644  and  _645
REMARK  264  A    between atoms: _645  and  _646
REMARK  265  A    between atoms: _646  and  _647
REMARK  266  A    between atoms: _647  and  _648
REMARK  267  A    between atoms: _652  and  _654
REMARK  268  A    between atoms: _654  and  _655
REMARK  269  A    between atoms: _654  and  _657
REMARK  270  A    between atoms: _657  and  _658
REMARK  271  A    between atoms: _668  and  _670
REMARK  272  A    between atoms: _670  and  _671
REMARK  273  A    between atoms: _674  and  _676
REMARK  274  A    between atoms: _676  and  _677
REMARK  275  A    between atoms: _679  and  _681
REMARK  276  A    between atoms: _681  and  _682
REMARK  277  A    between atoms: _685  and  _687
REMARK  278  A    between atoms: _687  and  _688
REMARK  279  A    between atoms: _691  and  _693
REMARK  280  A    between atoms: _693  and  _694
REMARK  281  A    between atoms: _693  and  _696
REMARK  282  A    between atoms: _696  and  _697
REMARK  283  A    between atoms: _697  and  _698
REMARK  284  A    between atoms: _701  and  _703
REMARK  285  A    between atoms: _703  and  _704
REMARK  286  A    between atoms: _703  and  _706
REMARK  287  A    between atoms: _706  and  _707
REMARK  288  A    between atoms: _712  and  _713
REMARK  289  A    between atoms: _715  and  _717
REMARK  290  A    between atoms: _717  and  _718
REMARK  291  A    between atoms: _717  and  _720
REMARK  292  A    between atoms: _720  and  _721
REMARK  293  A    between atoms: _726  and  _727
REMARK  294  A    between atoms: _729  and  _731
REMARK  295  A    between atoms: _731  and  _732
REMARK  296  A    between atoms: _731  and  _734
REMARK  297  A    between atoms: _734  and  _735
REMARK  298  A    between atoms: _735  and  _736
REMARK  299  A    between atoms: _736  and  _737
REMARK  300  A    between atoms: _746  and  _748
REMARK  301  A    between atoms: _748  and  _749
REMARK  302  A    between atoms: _752  and  _754
REMARK  303  A    between atoms: _754  and  _755
REMARK  304  A    between atoms: _754  and  _757
REMARK  305  A    between atoms: _757  and  _758
REMARK  306  A    between atoms: _763  and  _764
REMARK  307  A    between atoms: _766  and  _768
REMARK  308  A    between atoms: _768  and  _769
REMARK  309  A    between atoms: _768  and  _771
REMARK  310  A    between atoms: _771  and  _772
REMARK  311  A    between atoms: _775  and  _777
REMARK  312  A    between atoms: _777  and  _778
REMARK  313  A    between atoms: _777  and  _780
REMARK  314  A    between atoms: _780  and  _781
REMARK  315  A    between atoms: _784  and  _786
REMARK  316  A    between atoms: _786  and  _787
REMARK  317  A    between atoms: _786  and  _789
REMARK  318  A    between atoms: _789  and  _790
REMARK  319  A    between atoms: _791  and  _793
REMARK  320  A    between atoms: _793  and  _794
REMARK  321  A    between atoms: _793  and  _796
REMARK  322  A    between atoms: _799  and  _801
REMARK  323  A    between atoms: _801  and  _802
REMARK  324  A    between atoms: _801  and  _804
REMARK  325  A    between atoms: _804  and  _805
REMARK  326  A    between atoms: _805  and  _806
REMARK  327  A    between atoms: _809  and  _811
REMARK  328  A    between atoms: _811  and  _812
REMARK  329  A    between atoms: _811  and  _814
REMARK  330  A    between atoms: _814  and  _815
REMARK  331  A    between atoms: _825  and  _827
REMARK  332  A    between atoms: _827  and  _828
REMARK  333  A    between atoms: _827  and  _830
REMARK  334  A    between atoms: _830  and  _831
REMARK  335  A    between atoms: _834  and  _836
REMARK  336  A    between atoms: _836  and  _837
REMARK  337  A    between atoms: _836  and  _839
REMARK  338  A    between atoms: _839  and  _840
REMARK  339  A    between atoms: _840  and  _841
REMARK  340  A    between atoms: _841  and  _842
REMARK  341  A    between atoms: _851  and  _853
REMARK  342  A    between atoms: _853  and  _854
REMARK  343  A    between atoms: _853  and  _856
REMARK  344  A    between atoms: _856  and  _857
REMARK  345  A    between atoms: _862  and  _863
REMARK                            x       y       z     vdW  Elec       q    Type
REMARK                         _______ _______ _______ _____ _____    ______ ____
ROOT
ATOM      1  O   HOH     1      37.466  63.070  -2.251  0.00  0.00    +0.000 OA
ENDROOT
TORSDOF 0
REMARK  Name = ../refined-set-2016/1fzj/1fzj_pocket.pdb
REMARK  345 active torsions:
REMARK  status: ('A' for Active; 'I' for Inactive)
REMARK    1  A    between atoms: _1  and  _3
REMARK    2  A    between atoms: _3  and  _4
REMARK    3  A    between atoms: _3  and  _6
REMARK    4  A    between atoms: _6  and  _7
REMARK    5  A    between atoms: _10  and  _12
REMARK    6  A    between atoms: _12  and  _13
REMARK    7  A    between atoms: _12  and  _15
REMARK    8  A    between atoms: _15  and  _16
REMARK    9  A    between atoms: _16  and  _17
REMARK   10  A    between atoms: _17  and  _18
REMARK   11  A    between atoms: _27  and  _29
REMARK   12  A    between atoms: _29  and  _30
REMARK   13  A    between atoms: _29  and  _32
REMARK   14  A    between atoms: _32  and  _33
REMARK   15  A    between atoms: _38  and  _39
REMARK   16  A    between atoms: _41  and  _43
REMARK   17  A    between atoms: _43  and  _44
REMARK   18  A    between atoms: _43  and  _46
REMARK   19  A    between atoms: _46  and  _47
REMARK   20  A    between atoms: _53  and  _55
REMARK   21  A    between atoms: _55  and  _56
REMARK   22  A    between atoms: _55  and  _58
REMARK   23  A    between atoms: _61  and  _63
REMARK   24  A    between atoms: _63  and  _64
REMARK   25  A    between atoms: _63  and  _66
REMARK   26  A    between atoms: _66  and  _67
REMARK   27  A    between atoms: _70  and  _72
REMARK   28  A    between atoms: _72  and  _73
REMARK   29  A    between atoms: _72  and  _75
REMARK   30  A    between atoms: _75  and  _76
REMARK   31  A    between atoms: _81  and  _82
REMARK   32  A    between atoms: _84  and  _86
REMARK   33  A    between atoms: _86  and  _87
REMARK   34  A    between atoms: _86  and  _89
REMARK   35  A    between atoms: _89  and  _90
REMARK   36  A    between atoms: _90  and  _91
REMARK   37  A    between atoms: _93  and  _95
REMARK   38  A    between atoms: _95  and  _96
REMARK   39  A    between atoms: _95  and  _98
REMARK   40  A    between atoms: _98  and  _99
REMARK   41  A    between atoms: _99  and  _100
REMARK   42  A    between atoms: _103  and  _105
REMARK   43  A    between atoms: _105  and  _106
REMARK   44  A    between atoms: _105  and  _108
REMARK   45  A    between atoms: _111  and  _113
REMARK   46  A    between atoms: _113  and  _114
REMARK   47  A    between atoms: _113  and  _116
REMARK   48  A    between atoms: _119  and  _121
REMARK   49  A    between atoms: _121  and  _122
REMARK   50  A    between atoms: _121  and  _124
REMARK   51  A    between atoms: _124  and  _125
REMARK   52  A    between atoms: _131  and  _133
REMARK   53  A    between atoms: _133  and  _134
REMARK   54  A    between atoms: _133  and  _136
REMARK   55  A    between atoms: _139  and  _141
REMARK   56  A    between atoms: _141  and  _142
REMARK   57  A    between atoms: _141  and  _144
REMARK   58  A    between atoms: _144  and  _145
REMARK   59  A    between atoms: _150  and  _151
REMARK   60  A    between atoms: _153  and  _155
REMARK   61  A    between atoms: _155  and  _156
REMARK   62  A    between atoms: _155  and  _158
REMARK   63  A    between atoms: _158  and  _159
REMARK   64  A    between atoms: _159  and  _160
REMARK   65  A    between atoms: _162  and  _164
REMARK   66  A    between atoms: _164  and  _165
REMARK   67  A    between atoms: _164  and  _167
REMARK   68  A    between atoms: _167  and  _168
REMARK   69  A    between atoms: _168  and  _169
REMARK   70  A    between atoms: _172  and  _174
REMARK   71  A    between atoms: _174  and  _175
REMARK   72  A    between atoms: _174  and  _177
REMARK   73  A    between atoms: _177  and  _178
REMARK   74  A    between atoms: _178  and  _179
REMARK   75  A    between atoms: _182  and  _184
REMARK   76  A    between atoms: _184  and  _185
REMARK   77  A    between atoms: _184  and  _187
REMARK   78  A    between atoms: _187  and  _188
REMARK   79  A    between atoms: _193  and  _194
REMARK   80  A    between atoms: _196  and  _198
REMARK   81  A    between atoms: _198  and  _199
REMARK   82  A    between atoms: _198  and  _201
REMARK   83  A    between atoms: _201  and  _202
REMARK   84  A    between atoms: _212  and  _214
REMARK   85  A    between atoms: _214  and  _215
REMARK   86  A    between atoms: _214  and  _217
REMARK   87  A    between atoms: _217  and  _218
REMARK   88  A    between atoms: _218  and  _219
REMARK   89  A    between atoms: _222  and  _224
REMARK   90  A    between atoms: _224  and  _225
REMARK   91  A    between atoms: _224  and  _227
REMARK   92  A    between atoms: _227  and  _228
REMARK   93  A    between atoms: _228  and  _229
REMARK   94  A    between atoms: _229  and  _230
REMARK   95  A    between atoms: _239  and  _241
REMARK   96  A    between atoms: _241  and  _242
REMARK   97  A    between atoms: _241  and  _244
REMARK   98  A    between atoms: _244  and  _245
REMARK   99  A    between atoms: _245  and  _246
REMARK  100  A    between atoms: _249  and  _251
REMARK  101  A    between atoms: _251  and  _252
REMARK  102  A    between atoms: _251  and  _254
REMARK  103  A    between atoms: _254  and  _255
REMARK  104  A    between atoms: _258  and  _260
REMARK  105  A    between atoms: _260  and  _261
REMARK  106  A    between atoms: _260  and  _263
REMARK  107  A    between atoms: _263  and  _264
REMARK  108  A    between atoms: _264  and  _265
REMARK  109  A    between atoms: _270  and  _272
REMARK  110  A    between atoms: _272  and  _273
REMARK  111  A    between atoms: _272  and  _275
REMARK  112  A    between atoms: _275  and  _276
REMARK  113  A    between atoms: _276  and  _277
REMARK  114  A    between atoms: _277  and  _278
REMARK  115  A    between atoms: _278  and  _279
REMARK  116  A    between atoms: _283  and  _285
REMARK  117  A    between atoms: _285  and  _286
REMARK  118  A    between atoms: _289  and  _291
REMARK  119  A    between atoms: _291  and  _292
REMARK  120  A    between atoms: _294  and  _296
REMARK  121  A    between atoms: _296  and  _297
REMARK  122  A    between atoms: _296  and  _299
REMARK  123  A    between atoms: _299  and  _300
REMARK  124  A    between atoms: _305  and  _307
REMARK  125  A    between atoms: _307  and  _308
REMARK  126  A    between atoms: _307  and  _310
REMARK  127  A    between atoms: _310  and  _311
REMARK  128  A    between atoms: _311  and  _312
REMARK  129  A    between atoms: _315  and  _317
REMARK  130  A    between atoms: _317  and  _318
REMARK  131  A    between atoms: _317  and  _320
REMARK  132  A    between atoms: _320  and  _321
REMARK  133  A    between atoms: _323  and  _325
REMARK  134  A    between atoms: _325  and  _326
REMARK  135  A    between atoms: _325  and  _328
REMARK  136  A    between atoms: _328  and  _329
REMARK  137  A    between atoms: _335  and  _337
REMARK  138  A    between atoms: _337  and  _338
REMARK  139  A    between atoms: _337  and  _340
REMARK  140  A    between atoms: _343  and  _345
REMARK  141  A    between atoms: _345  and  _346
REMARK  142  A    between atoms: _345  and  _348
REMARK  143  A    between atoms: _348  and  _349
REMARK  144  A    between atoms: _352  and  _354
REMARK  145  A    between atoms: _354  and  _355
REMARK  146  A    between atoms: _354  and  _357
REMARK  147  A    between atoms: _357  and  _358
REMARK  148  A    between atoms: _361  and  _363
REMARK  149  A    between atoms: _363  and  _364
REMARK  150  A    between atoms: _363  and  _366
REMARK  151  A    between atoms: _366  and  _367
REMARK  152  A    between atoms: _370  and  _372
REMARK  153  A    between atoms: _372  and  _373
REMARK  154  A    between atoms: _372  and  _375
REMARK  155  A    between atoms: _375  and  _376
REMARK  156  A    between atoms: _379  and  _381
REMARK  157  A    between atoms: _381  and  _382
REMARK  158  A    between atoms: _381  and  _384
REMARK  159  A    between atoms: _384  and  _385
REMARK  160  A    between atoms: _390  and  _391
REMARK  161  A    between atoms: _393  and  _395
REMARK  162  A    between atoms: _395  and  _396
REMARK  163  A    between atoms: _395  and  _398
REMARK  164  A    between atoms: _398  and  _399
REMARK  165  A    between atoms: _404  and  _405
REMARK  166  A    between atoms: _407  and  _409
REMARK  167  A    between atoms: _409  and  _410
REMARK  168  A    between atoms: _409  and  _412
REMARK  169  A    between atoms: _412  and  _413
REMARK  170  A    between atoms: _416  and  _418
REMARK  171  A    between atoms: _418  and  _419
REMARK  172  A    between atoms: _418  and  _421
REMARK  173  A    between atoms: _421  and  _422
REMARK  174  A    between atoms: _422  and  _423
REMARK  175  A    between atoms: _428  and  _430
REMARK  176  A    between atoms: _430  and  _431
REMARK  177  A    between atoms: _430  and  _433
REMARK  178  A    between atoms: _436  and  _438
REMARK  179  A    between atoms: _438  and  _439
REMARK  180  A    between atoms: _438  and  _441
REMARK  181  A    between atoms: _441  and  _442
REMARK  182  A    between atoms: _445  and  _447
REMARK  183  A    between atoms: _447  and  _448
REMARK  184  A    between atoms: _447  and  _450
REMARK  185  A    between atoms: _450  and  _451
REMARK  186  A    between atoms: _453  and  _455
REMARK  187  A    between atoms: _455  and  _456
REMARK  188  A    between atoms: _458  and  _460
REMARK  189  A    between atoms: _460  and  _461
REMARK  190  A    between atoms: _460  and  _463
REMARK  191  A    between atoms: _463  and  _464
REMARK  192  A    between atoms: _464  and  _790
REMARK  193  A    between atoms: _465  and  _467
REMARK  194  A    between atoms: _467  and  _468
REMARK  195  A    between atoms: _467  and  _470
REMARK  196  A    between atoms: _470  and  _471
REMARK  197  A    between atoms: _476  and  _477
REMARK  198  A    between atoms: _479  and  _481
REMARK  199  A    between atoms: _481  and  _482
REMARK  200  A    between atoms: _481  and  _484
REMARK  201  A    between atoms: _484  and  _485
REMARK  202  A    between atoms: _485  and  _486
REMARK  203  A    between atoms: _491  and  _493
REMARK  204  A    between atoms: _493  and  _494
REMARK  205  A    between atoms: _493  and  _496
REMARK  206  A    between atoms: _496  and  _497
REMARK  207  A    between atoms: _497  and  _498
REMARK  208  A    between atoms: _503  and  _505
REMARK  209  A    between atoms: _505  and  _506
REMARK  210  A    between atoms: _505  and  _508
REMARK  211  A    between atoms: _508  and  _509
REMARK  212  A    between atoms: _514  and  _515
REMARK  213  A    between atoms: _517  and  _519
REMARK  214  A    between atoms: _519  and  _520
REMARK  215  A    between atoms: _523  and  _525
REMARK  216  A    between atoms: _525  and  _526
REMARK  217  A    between atoms: _525  and  _528
REMARK  218  A    between atoms: _528  and  _529
REMARK  219  A    between atoms: _534  and  _535
REMARK  220  A    between atoms: _537  and  _539
REMARK  221  A    between atoms: _539  and  _540
REMARK  222  A    between atoms: _539  and  _542
REMARK  223  A    between atoms: _542  and  _543
REMARK  224  A    between atoms: _548  and  _549
REMARK  225  A    between atoms: _551  and  _553
REMARK  226  A    between atoms: _553  and  _554
REMARK  227  A    between atoms: _553  and  _556
REMARK  228  A    between atoms: _556  and  _557
REMARK  229  A    between atoms: _560  and  _562
REMARK  230  A    between atoms: _562  and  _563
REMARK  231  A    between atoms: _562  and  _565
REMARK  232  A    between atoms: _565  and  _566
REMARK  233  A    between atoms: _576  and  _578
REMARK  234  A    between atoms: _578  and  _579
REMARK  235  A    between atoms: _582  and  _584
REMARK  236  A    between atoms: _584  and  _585
REMARK  237  A    between atoms: _588  and  _590
REMARK  238  A    between atoms: _590  and  _591
REMARK  239  A    between atoms: _590  and  _593
REMARK  240  A    between atoms: _593  and  _594
REMARK  241  A    between atoms: _597  and  _599
REMARK  242  A    between atoms: _599  and  _600
REMARK  243  A    between atoms: _599  and  _602
REMARK  244  A    between atoms: _602  and  _603
REMARK  245  A    between atoms: _606  and  _608
REMARK  246  A    between atoms: _608  and  _609
REMARK  247  A    between atoms: _608  and  _611
REMARK  248  A    between atoms: _611  and  _612
REMARK  249  A    between atoms: _615  and  _617
REMARK  250  A    between atoms: _617  and  _618
REMARK  251  A    between atoms: _617  and  _620
REMARK  252  A    between atoms: _620  and  _621
REMARK  253  A    between atoms: _621  and  _622
REMARK  254  A    between atoms: _622  and  _623
REMARK  255  A    between atoms: _623  and  _624
REMARK  256  A    between atoms: _628  and  _630
REMARK  257  A    between atoms: _630  and  _631
REMARK  258  A    between atoms: _630  and  _633
REMARK  259  A    between atoms: _633  and  _634
REMARK  260  A    between atoms: _639  and  _641
REMARK  261  A    between atoms: _641  and  _642
REMARK  262  A    between atoms: _641  and  _644
REMARK  263  A    between atoms: _644  and  _645
REMARK  264  A    between atoms: _645  and  _646
REMARK  265  A    between atoms: _646  and  _647
REMARK  266  A    between atoms: _647  and  _648
REMARK  267  A    between atoms: _652  and  _654
REMARK  268  A    between atoms: _654  and  _655
REMARK  269  A    between atoms: _654  and  _657
REMARK  270  A    between atoms: _657  and  _658
REMARK  271  A    between atoms: _668  and  _670
REMARK  272  A    between atoms: _670  and  _671
REMARK  273  A    between atoms: _674  and  _676
REMARK  274  A    between atoms: _676  and  _677
REMARK  275  A    between atoms: _679  and  _681
REMARK  276  A    between atoms: _681  and  _682
REMARK  277  A    between atoms: _685  and  _687
REMARK  278  A    between atoms: _687  and  _688
REMARK  279  A    between atoms: _691  and  _693
REMARK  280  A    between atoms: _693  and  _694
REMARK  281  A    between atoms: _693  and  _696
REMARK  282  A    between atoms: _696  and  _697
REMARK  283  A    between atoms: _697  and  _698
REMARK  284  A    between atoms: _701  and  _703
REMARK  285  A    between atoms: _703  and  _704
REMARK  286  A    between atoms: _703  and  _706
REMARK  287  A    between atoms: _706  and  _707
REMARK  288  A    between atoms: _712  and  _713
REMARK  289  A    between atoms: _715  and  _717
REMARK  290  A    between atoms: _717  and  _718
REMARK  291  A    between atoms: _717  and  _720
REMARK  292  A    between atoms: _720  and  _721
REMARK  293  A    between atoms: _726  and  _727
REMARK  294  A    between atoms: _729  and  _731
REMARK  295  A    between atoms: _731  and  _732
REMARK  296  A    between atoms: _731  and  _734
REMARK  297  A    between atoms: _734  and  _735
REMARK  298  A    between atoms: _735  and  _736
REMARK  299  A    between atoms: _736  and  _737
REMARK  300  A    between atoms: _746  and  _748
REMARK  301  A    between atoms: _748  and  _749
REMARK  302  A    between atoms: _752  and  _754
REMARK  303  A    between atoms: _754  and  _755
REMARK  304  A    between atoms: _754  and  _757
REMARK  305  A    between atoms: _757  and  _758
REMARK  306  A    between atoms: _763  and  _764
REMARK  307  A    between atoms: _766  and  _768
REMARK  308  A    between atoms: _768  and  _769
REMARK  309  A    between atoms: _768  and  _771
REMARK  310  A    between atoms: _771  and  _772
REMARK  311  A    between atoms: _775  and  _777
REMARK  312  A    between atoms: _777  and  _778
REMARK  313  A    between atoms: _777  and  _780
REMARK  314  A    between atoms: _780  and  _781
REMARK  315  A    between atoms: _784  and  _786
REMARK  316  A    between atoms: _786  and  _787
REMARK  317  A    between atoms: _786  and  _789
REMARK  318  A    between atoms: _789  and  _790
REMARK  319  A    between atoms: _791  and  _793
REMARK  320  A    between atoms: _793  and  _794
REMARK  321  A    between atoms: _793  and  _796
REMARK  322  A    between atoms: _799  and  _801
REMARK  323  A    between atoms: _801  and  _802
REMARK  324  A    between atoms: _801  and  _804
REMARK  325  A    between atoms: _804  and  _805
REMARK  326  A    between atoms: _805  and  _806
REMARK  327  A    between atoms: _809  and  _811
REMARK  328  A    between atoms: _811  and  _812
REMARK  329  A    between atoms: _811  and  _814
REMARK  330  A    between atoms: _814  and  _815
REMARK  331  A    between atoms: _825  and  _827
REMARK  332  A    between atoms: _827  and  _828
REMARK  333  A    between atoms: _827  and  _830
REMARK  334  A    between atoms: _830  and  _831
REMARK  335  A    between atoms: _834  and  _836
REMARK  336  A    between atoms: _836  and  _837
REMARK  337  A    between atoms: _836  and  _839
REMARK  338  A    between atoms: _839  and  _840
REMARK  339  A    between atoms: _840  and  _841
REMARK  340  A    between atoms: _841  and  _842
REMARK  341  A    between atoms: _851  and  _853
REMARK  342  A    between atoms: _853  and  _854
REMARK  343  A    between atoms: _853  and  _856
REMARK  344  A    between atoms: _856  and  _857
REMARK  345  A    between atoms: _862  and  _863
REMARK                            x       y       z     vdW  Elec       q    Type
REMARK                         _______ _______ _______ _____ _____    ______ ____
ROOT
ATOM      1  O   HOH     1      39.917  64.496  -6.617  0.00  0.00    +0.000 OA
ENDROOT
TORSDOF 0
REMARK  Name = ../refined-set-2016/1fzj/1fzj_pocket.pdb
REMARK  345 active torsions:
REMARK  status: ('A' for Active; 'I' for Inactive)
REMARK    1  A    between atoms: _1  and  _3
REMARK    2  A    between atoms: _3  and  _4
REMARK    3  A    between atoms: _3  and  _6
REMARK    4  A    between atoms: _6  and  _7
REMARK    5  A    between atoms: _10  and  _12
REMARK    6  A    between atoms: _12  and  _13
REMARK    7  A    between atoms: _12  and  _15
REMARK    8  A    between atoms: _15  and  _16
REMARK    9  A    between atoms: _16  and  _17
REMARK   10  A    between atoms: _17  and  _18
REMARK   11  A    between atoms: _27  and  _29
REMARK   12  A    between atoms: _29  and  _30
REMARK   13  A    between atoms: _29  and  _32
REMARK   14  A    between atoms: _32  and  _33
REMARK   15  A    between atoms: _38  and  _39
REMARK   16  A    between atoms: _41  and  _43
REMARK   17  A    between atoms: _43  and  _44
REMARK   18  A    between atoms: _43  and  _46
REMARK   19  A    between atoms: _46  and  _47
REMARK   20  A    between atoms: _53  and  _55
REMARK   21  A    between atoms: _55  and  _56
REMARK   22  A    between atoms: _55  and  _58
REMARK   23  A    between atoms: _61  and  _63
REMARK   24  A    between atoms: _63  and  _64
REMARK   25  A    between atoms: _63  and  _66
REMARK   26  A    between atoms: _66  and  _67
REMARK   27  A    between atoms: _70  and  _72
REMARK   28  A    between atoms: _72  and  _73
REMARK   29  A    between atoms: _72  and  _75
REMARK   30  A    between atoms: _75  and  _76
REMARK   31  A    between atoms: _81  and  _82
REMARK   32  A    between atoms: _84  and  _86
REMARK   33  A    between atoms: _86  and  _87
REMARK   34  A    between atoms: _86  and  _89
REMARK   35  A    between atoms: _89  and  _90
REMARK   36  A    between atoms: _90  and  _91
REMARK   37  A    between atoms: _93  and  _95
REMARK   38  A    between atoms: _95  and  _96
REMARK   39  A    between atoms: _95  and  _98
REMARK   40  A    between atoms: _98  and  _99
REMARK   41  A    between atoms: _99  and  _100
REMARK   42  A    between atoms: _103  and  _105
REMARK   43  A    between atoms: _105  and  _106
REMARK   44  A    between atoms: _105  and  _108
REMARK   45  A    between atoms: _111  and  _113
REMARK   46  A    between atoms: _113  and  _114
REMARK   47  A    between atoms: _113  and  _116
REMARK   48  A    between atoms: _119  and  _121
REMARK   49  A    between atoms: _121  and  _122
REMARK   50  A    between atoms: _121  and  _124
REMARK   51  A    between atoms: _124  and  _125
REMARK   52  A    between atoms: _131  and  _133
REMARK   53  A    between atoms: _133  and  _134
REMARK   54  A    between atoms: _133  and  _136
REMARK   55  A    between atoms: _139  and  _141
REMARK   56  A    between atoms: _141  and  _142
REMARK   57  A    between atoms: _141  and  _144
REMARK   58  A    between atoms: _144  and  _145
REMARK   59  A    between atoms: _150  and  _151
REMARK   60  A    between atoms: _153  and  _155
REMARK   61  A    between atoms: _155  and  _156
REMARK   62  A    between atoms: _155  and  _158
REMARK   63  A    between atoms: _158  and  _159
REMARK   64  A    between atoms: _159  and  _160
REMARK   65  A    between atoms: _162  and  _164
REMARK   66  A    between atoms: _164  and  _165
REMARK   67  A    between atoms: _164  and  _167
REMARK   68  A    between atoms: _167  and  _168
REMARK   69  A    between atoms: _168  and  _169
REMARK   70  A    between atoms: _172  and  _174
REMARK   71  A    between atoms: _174  and  _175
REMARK   72  A    between atoms: _174  and  _177
REMARK   73  A    between atoms: _177  and  _178
REMARK   74  A    between atoms: _178  and  _179
REMARK   75  A    between atoms: _182  and  _184
REMARK   76  A    between atoms: _184  and  _185
REMARK   77  A    between atoms: _184  and  _187
REMARK   78  A    between atoms: _187  and  _188
REMARK   79  A    between atoms: _193  and  _194
REMARK   80  A    between atoms: _196  and  _198
REMARK   81  A    between atoms: _198  and  _199
REMARK   82  A    between atoms: _198  and  _201
REMARK   83  A    between atoms: _201  and  _202
REMARK   84  A    between atoms: _212  and  _214
REMARK   85  A    between atoms: _214  and  _215
REMARK   86  A    between atoms: _214  and  _217
REMARK   87  A    between atoms: _217  and  _218
REMARK   88  A    between atoms: _218  and  _219
REMARK   89  A    between atoms: _222  and  _224
REMARK   90  A    between atoms: _224  and  _225
REMARK   91  A    between atoms: _224  and  _227
REMARK   92  A    between atoms: _227  and  _228
REMARK   93  A    between atoms: _228  and  _229
REMARK   94  A    between atoms: _229  and  _230
REMARK   95  A    between atoms: _239  and  _241
REMARK   96  A    between atoms: _241  and  _242
REMARK   97  A    between atoms: _241  and  _244
REMARK   98  A    between atoms: _244  and  _245
REMARK   99  A    between atoms: _245  and  _246
REMARK  100  A    between atoms: _249  and  _251
REMARK  101  A    between atoms: _251  and  _252
REMARK  102  A    between atoms: _251  and  _254
REMARK  103  A    between atoms: _254  and  _255
REMARK  104  A    between atoms: _258  and  _260
REMARK  105  A    between atoms: _260  and  _261
REMARK  106  A    between atoms: _260  and  _263
REMARK  107  A    between atoms: _263  and  _264
REMARK  108  A    between atoms: _264  and  _265
REMARK  109  A    between atoms: _270  and  _272
REMARK  110  A    between atoms: _272  and  _273
REMARK  111  A    between atoms: _272  and  _275
REMARK  112  A    between atoms: _275  and  _276
REMARK  113  A    between atoms: _276  and  _277
REMARK  114  A    between atoms: _277  and  _278
REMARK  115  A    between atoms: _278  and  _279
REMARK  116  A    between atoms: _283  and  _285
REMARK  117  A    between atoms: _285  and  _286
REMARK  118  A    between atoms: _289  and  _291
REMARK  119  A    between atoms: _291  and  _292
REMARK  120  A    between atoms: _294  and  _296
REMARK  121  A    between atoms: _296  and  _297
REMARK  122  A    between atoms: _296  and  _299
REMARK  123  A    between atoms: _299  and  _300
REMARK  124  A    between atoms: _305  and  _307
REMARK  125  A    between atoms: _307  and  _308
REMARK  126  A    between atoms: _307  and  _310
REMARK  127  A    between atoms: _310  and  _311
REMARK  128  A    between atoms: _311  and  _312
REMARK  129  A    between atoms: _315  and  _317
REMARK  130  A    between atoms: _317  and  _318
REMARK  131  A    between atoms: _317  and  _320
REMARK  132  A    between atoms: _320  and  _321
REMARK  133  A    between atoms: _323  and  _325
REMARK  134  A    between atoms: _325  and  _326
REMARK  135  A    between atoms: _325  and  _328
REMARK  136  A    between atoms: _328  and  _329
REMARK  137  A    between atoms: _335  and  _337
REMARK  138  A    between atoms: _337  and  _338
REMARK  139  A    between atoms: _337  and  _340
REMARK  140  A    between atoms: _343  and  _345
REMARK  141  A    between atoms: _345  and  _346
REMARK  142  A    between atoms: _345  and  _348
REMARK  143  A    between atoms: _348  and  _349
REMARK  144  A    between atoms: _352  and  _354
REMARK  145  A    between atoms: _354  and  _355
REMARK  146  A    between atoms: _354  and  _357
REMARK  147  A    between atoms: _357  and  _358
REMARK  148  A    between atoms: _361  and  _363
REMARK  149  A    between atoms: _363  and  _364
REMARK  150  A    between atoms: _363  and  _366
REMARK  151  A    between atoms: _366  and  _367
REMARK  152  A    between atoms: _370  and  _372
REMARK  153  A    between atoms: _372  and  _373
REMARK  154  A    between atoms: _372  and  _375
REMARK  155  A    between atoms: _375  and  _376
REMARK  156  A    between atoms: _379  and  _381
REMARK  157  A    between atoms: _381  and  _382
REMARK  158  A    between atoms: _381  and  _384
REMARK  159  A    between atoms: _384  and  _385
REMARK  160  A    between atoms: _390  and  _391
REMARK  161  A    between atoms: _393  and  _395
REMARK  162  A    between atoms: _395  and  _396
REMARK  163  A    between atoms: _395  and  _398
REMARK  164  A    between atoms: _398  and  _399
REMARK  165  A    between atoms: _404  and  _405
REMARK  166  A    between atoms: _407  and  _409
REMARK  167  A    between atoms: _409  and  _410
REMARK  168  A    between atoms: _409  and  _412
REMARK  169  A    between atoms: _412  and  _413
REMARK  170  A    between atoms: _416  and  _418
REMARK  171  A    between atoms: _418  and  _419
REMARK  172  A    between atoms: _418  and  _421
REMARK  173  A    between atoms: _421  and  _422
REMARK  174  A    between atoms: _422  and  _423
REMARK  175  A    between atoms: _428  and  _430
REMARK  176  A    between atoms: _430  and  _431
REMARK  177  A    between atoms: _430  and  _433
REMARK  178  A    between atoms: _436  and  _438
REMARK  179  A    between atoms: _438  and  _439
REMARK  180  A    between atoms: _438  and  _441
REMARK  181  A    between atoms: _441  and  _442
REMARK  182  A    between atoms: _445  and  _447
REMARK  183  A    between atoms: _447  and  _448
REMARK  184  A    between atoms: _447  and  _450
REMARK  185  A    between atoms: _450  and  _451
REMARK  186  A    between atoms: _453  and  _455
REMARK  187  A    between atoms: _455  and  _456
REMARK  188  A    between atoms: _458  and  _460
REMARK  189  A    between atoms: _460  and  _461
REMARK  190  A    between atoms: _460  and  _463
REMARK  191  A    between atoms: _463  and  _464
REMARK  192  A    between atoms: _464  and  _790
REMARK  193  A    between atoms: _465  and  _467
REMARK  194  A    between atoms: _467  and  _468
REMARK  195  A    between atoms: _467  and  _470
REMARK  196  A    between atoms: _470  and  _471
REMARK  197  A    between atoms: _476  and  _477
REMARK  198  A    between atoms: _479  and  _481
REMARK  199  A    between atoms: _481  and  _482
REMARK  200  A    between atoms: _481  and  _484
REMARK  201  A    between atoms: _484  and  _485
REMARK  202  A    between atoms: _485  and  _486
REMARK  203  A    between atoms: _491  and  _493
REMARK  204  A    between atoms: _493  and  _494
REMARK  205  A    between atoms: _493  and  _496
REMARK  206  A    between atoms: _496  and  _497
REMARK  207  A    between atoms: _497  and  _498
REMARK  208  A    between atoms: _503  and  _505
REMARK  209  A    between atoms: _505  and  _506
REMARK  210  A    between atoms: _505  and  _508
REMARK  211  A    between atoms: _508  and  _509
REMARK  212  A    between atoms: _514  and  _515
REMARK  213  A    between atoms: _517  and  _519
REMARK  214  A    between atoms: _519  and  _520
REMARK  215  A    between atoms: _523  and  _525
REMARK  216  A    between atoms: _525  and  _526
REMARK  217  A    between atoms: _525  and  _528
REMARK  218  A    between atoms: _528  and  _529
REMARK  219  A    between atoms: _534  and  _535
REMARK  220  A    between atoms: _537  and  _539
REMARK  221  A    between atoms: _539  and  _540
REMARK  222  A    between atoms: _539  and  _542
REMARK  223  A    between atoms: _542  and  _543
REMARK  224  A    between atoms: _548  and  _549
REMARK  225  A    between atoms: _551  and  _553
REMARK  226  A    between atoms: _553  and  _554
REMARK  227  A    between atoms: _553  and  _556
REMARK  228  A    between atoms: _556  and  _557
REMARK  229  A    between atoms: _560  and  _562
REMARK  230  A    between atoms: _562  and  _563
REMARK  231  A    between atoms: _562  and  _565
REMARK  232  A    between atoms: _565  and  _566
REMARK  233  A    between atoms: _576  and  _578
REMARK  234  A    between atoms: _578  and  _579
REMARK  235  A    between atoms: _582  and  _584
REMARK  236  A    between atoms: _584  and  _585
REMARK  237  A    between atoms: _588  and  _590
REMARK  238  A    between atoms: _590  and  _591
REMARK  239  A    between atoms: _590  and  _593
REMARK  240  A    between atoms: _593  and  _594
REMARK  241  A    between atoms: _597  and  _599
REMARK  242  A    between atoms: _599  and  _600
REMARK  243  A    between atoms: _599  and  _602
REMARK  244  A    between atoms: _602  and  _603
REMARK  245  A    between atoms: _606  and  _608
REMARK  246  A    between atoms: _608  and  _609
REMARK  247  A    between atoms: _608  and  _611
REMARK  248  A    between atoms: _611  and  _612
REMARK  249  A    between atoms: _615  and  _617
REMARK  250  A    between atoms: _617  and  _618
REMARK  251  A    between atoms: _617  and  _620
REMARK  252  A    between atoms: _620  and  _621
REMARK  253  A    between atoms: _621  and  _622
REMARK  254  A    between atoms: _622  and  _623
REMARK  255  A    between atoms: _623  and  _624
REMARK  256  A    between atoms: _628  and  _630
REMARK  257  A    between atoms: _630  and  _631
REMARK  258  A    between atoms: _630  and  _633
REMARK  259  A    between atoms: _633  and  _634
REMARK  260  A    between atoms: _639  and  _641
REMARK  261  A    between atoms: _641  and  _642
REMARK  262  A    between atoms: _641  and  _644
REMARK  263  A    between atoms: _644  and  _645
REMARK  264  A    between atoms: _645  and  _646
REMARK  265  A    between atoms: _646  and  _647
REMARK  266  A    between atoms: _647  and  _648
REMARK  267  A    between atoms: _652  and  _654
REMARK  268  A    between atoms: _654  and  _655
REMARK  269  A    between atoms: _654  and  _657
REMARK  270  A    between atoms: _657  and  _658
REMARK  271  A    between atoms: _668  and  _670
REMARK  272  A    between atoms: _670  and  _671
REMARK  273  A    between atoms: _674  and  _676
REMARK  274  A    between atoms: _676  and  _677
REMARK  275  A    between atoms: _679  and  _681
REMARK  276  A    between atoms: _681  and  _682
REMARK  277  A    between atoms: _685  and  _687
REMARK  278  A    between atoms: _687  and  _688
REMARK  279  A    between atoms: _691  and  _693
REMARK  280  A    between atoms: _693  and  _694
REMARK  281  A    between atoms: _693  and  _696
REMARK  282  A    between atoms: _696  and  _697
REMARK  283  A    between atoms: _697  and  _698
REMARK  284  A    between atoms: _701  and  _703
REMARK  285  A    between atoms: _703  and  _704
REMARK  286  A    between atoms: _703  and  _706
REMARK  287  A    between atoms: _706  and  _707
REMARK  288  A    between atoms: _712  and  _713
REMARK  289  A    between atoms: _715  and  _717
REMARK  290  A    between atoms: _717  and  _718
REMARK  291  A    between atoms: _717  and  _720
REMARK  292  A    between atoms: _720  and  _721
REMARK  293  A    between atoms: _726  and  _727
REMARK  294  A    between atoms: _729  and  _731
REMARK  295  A    between atoms: _731  and  _732
REMARK  296  A    between atoms: _731  and  _734
REMARK  297  A    between atoms: _734  and  _735
REMARK  298  A    between atoms: _735  and  _736
REMARK  299  A    between atoms: _736  and  _737
REMARK  300  A    between atoms: _746  and  _748
REMARK  301  A    between atoms: _748  and  _749
REMARK  302  A    between atoms: _752  and  _754
REMARK  303  A    between atoms: _754  and  _755
REMARK  304  A    between atoms: _754  and  _757
REMARK  305  A    between atoms: _757  and  _758
REMARK  306  A    between atoms: _763  and  _764
REMARK  307  A    between atoms: _766  and  _768
REMARK  308  A    between atoms: _768  and  _769
REMARK  309  A    between atoms: _768  and  _771
REMARK  310  A    between atoms: _771  and  _772
REMARK  311  A    between atoms: _775  and  _777
REMARK  312  A    between atoms: _777  and  _778
REMARK  313  A    between atoms: _777  and  _780
REMARK  314  A    between atoms: _780  and  _781
REMARK  315  A    between atoms: _784  and  _786
REMARK  316  A    between atoms: _786  and  _787
REMARK  317  A    between atoms: _786  and  _789
REMARK  318  A    between atoms: _789  and  _790
REMARK  319  A    between atoms: _791  and  _793
REMARK  320  A    between atoms: _793  and  _794
REMARK  321  A    between atoms: _793  and  _796
REMARK  322  A    between atoms: _799  and  _801
REMARK  323  A    between atoms: _801  and  _802
REMARK  324  A    between atoms: _801  and  _804
REMARK  325  A    between atoms: _804  and  _805
REMARK  326  A    between atoms: _805  and  _806
REMARK  327  A    between atoms: _809  and  _811
REMARK  328  A    between atoms: _811  and  _812
REMARK  329  A    between atoms: _811  and  _814
REMARK  330  A    between atoms: _814  and  _815
REMARK  331  A    between atoms: _825  and  _827
REMARK  332  A    between atoms: _827  and  _828
REMARK  333  A    between atoms: _827  and  _830
REMARK  334  A    between atoms: _830  and  _831
REMARK  335  A    between atoms: _834  and  _836
REMARK  336  A    between atoms: _836  and  _837
REMARK  337  A    between atoms: _836  and  _839
REMARK  338  A    between atoms: _839  and  _840
REMARK  339  A    between atoms: _840  and  _841
REMARK  340  A    between atoms: _841  and  _842
REMARK  341  A    between atoms: _851  and  _853
REMARK  342  A    between atoms: _853  and  _854
REMARK  343  A    between atoms: _853  and  _856
REMARK  344  A    between atoms: _856  and  _857
REMARK  345  A    between atoms: _862  and  _863
REMARK                            x       y       z     vdW  Elec       q    Type
REMARK                         _______ _______ _______ _____ _____    ______ ____
ROOT
ATOM      1  O   HOH     1      38.568  62.726  -7.165  0.00  0.00    +0.000 OA
ENDROOT
TORSDOF 0
REMARK  Name = ../refined-set-2016/1fzj/1fzj_pocket.pdb
REMARK  345 active torsions:
REMARK  status: ('A' for Active; 'I' for Inactive)
REMARK    1  A    between atoms: _1  and  _3
REMARK    2  A    between atoms: _3  and  _4
REMARK    3  A    between atoms: _3  and  _6
REMARK    4  A    between atoms: _6  and  _7
REMARK    5  A    between atoms: _10  and  _12
REMARK    6  A    between atoms: _12  and  _13
REMARK    7  A    between atoms: _12  and  _15
REMARK    8  A    between atoms: _15  and  _16
REMARK    9  A    between atoms: _16  and  _17
REMARK   10  A    between atoms: _17  and  _18
REMARK   11  A    between atoms: _27  and  _29
REMARK   12  A    between atoms: _29  and  _30
REMARK   13  A    between atoms: _29  and  _32
REMARK   14  A    between atoms: _32  and  _33
REMARK   15  A    between atoms: _38  and  _39
REMARK   16  A    between atoms: _41  and  _43
REMARK   17  A    between atoms: _43  and  _44
REMARK   18  A    between atoms: _43  and  _46
REMARK   19  A    between atoms: _46  and  _47
REMARK   20  A    between atoms: _53  and  _55
REMARK   21  A    between atoms: _55  and  _56
REMARK   22  A    between atoms: _55  and  _58
REMARK   23  A    between atoms: _61  and  _63
REMARK   24  A    between atoms: _63  and  _64
REMARK   25  A    between atoms: _63  and  _66
REMARK   26  A    between atoms: _66  and  _67
REMARK   27  A    between atoms: _70  and  _72
REMARK   28  A    between atoms: _72  and  _73
REMARK   29  A    between atoms: _72  and  _75
REMARK   30  A    between atoms: _75  and  _76
REMARK   31  A    between atoms: _81  and  _82
REMARK   32  A    between atoms: _84  and  _86
REMARK   33  A    between atoms: _86  and  _87
REMARK   34  A    between atoms: _86  and  _89
REMARK   35  A    between atoms: _89  and  _90
REMARK   36  A    between atoms: _90  and  _91
REMARK   37  A    between atoms: _93  and  _95
REMARK   38  A    between atoms: _95  and  _96
REMARK   39  A    between atoms: _95  and  _98
REMARK   40  A    between atoms: _98  and  _99
REMARK   41  A    between atoms: _99  and  _100
REMARK   42  A    between atoms: _103  and  _105
REMARK   43  A    between atoms: _105  and  _106
REMARK   44  A    between atoms: _105  and  _108
REMARK   45  A    between atoms: _111  and  _113
REMARK   46  A    between atoms: _113  and  _114
REMARK   47  A    between atoms: _113  and  _116
REMARK   48  A    between atoms: _119  and  _121
REMARK   49  A    between atoms: _121  and  _122
REMARK   50  A    between atoms: _121  and  _124
REMARK   51  A    between atoms: _124  and  _125
REMARK   52  A    between atoms: _131  and  _133
REMARK   53  A    between atoms: _133  and  _134
REMARK   54  A    between atoms: _133  and  _136
REMARK   55  A    between atoms: _139  and  _141
REMARK   56  A    between atoms: _141  and  _142
REMARK   57  A    between atoms: _141  and  _144
REMARK   58  A    between atoms: _144  and  _145
REMARK   59  A    between atoms: _150  and  _151
REMARK   60  A    between atoms: _153  and  _155
REMARK   61  A    between atoms: _155  and  _156
REMARK   62  A    between atoms: _155  and  _158
REMARK   63  A    between atoms: _158  and  _159
REMARK   64  A    between atoms: _159  and  _160
REMARK   65  A    between atoms: _162  and  _164
REMARK   66  A    between atoms: _164  and  _165
REMARK   67  A    between atoms: _164  and  _167
REMARK   68  A    between atoms: _167  and  _168
REMARK   69  A    between atoms: _168  and  _169
REMARK   70  A    between atoms: _172  and  _174
REMARK   71  A    between atoms: _174  and  _175
REMARK   72  A    between atoms: _174  and  _177
REMARK   73  A    between atoms: _177  and  _178
REMARK   74  A    between atoms: _178  and  _179
REMARK   75  A    between atoms: _182  and  _184
REMARK   76  A    between atoms: _184  and  _185
REMARK   77  A    between atoms: _184  and  _187
REMARK   78  A    between atoms: _187  and  _188
REMARK   79  A    between atoms: _193  and  _194
REMARK   80  A    between atoms: _196  and  _198
REMARK   81  A    between atoms: _198  and  _199
REMARK   82  A    between atoms: _198  and  _201
REMARK   83  A    between atoms: _201  and  _202
REMARK   84  A    between atoms: _212  and  _214
REMARK   85  A    between atoms: _214  and  _215
REMARK   86  A    between atoms: _214  and  _217
REMARK   87  A    between atoms: _217  and  _218
REMARK   88  A    between atoms: _218  and  _219
REMARK   89  A    between atoms: _222  and  _224
REMARK   90  A    between atoms: _224  and  _225
REMARK   91  A    between atoms: _224  and  _227
REMARK   92  A    between atoms: _227  and  _228
REMARK   93  A    between atoms: _228  and  _229
REMARK   94  A    between atoms: _229  and  _230
REMARK   95  A    between atoms: _239  and  _241
REMARK   96  A    between atoms: _241  and  _242
REMARK   97  A    between atoms: _241  and  _244
REMARK   98  A    between atoms: _244  and  _245
REMARK   99  A    between atoms: _245  and  _246
REMARK  100  A    between atoms: _249  and  _251
REMARK  101  A    between atoms: _251  and  _252
REMARK  102  A    between atoms: _251  and  _254
REMARK  103  A    between atoms: _254  and  _255
REMARK  104  A    between atoms: _258  and  _260
REMARK  105  A    between atoms: _260  and  _261
REMARK  106  A    between atoms: _260  and  _263
REMARK  107  A    between atoms: _263  and  _264
REMARK  108  A    between atoms: _264  and  _265
REMARK  109  A    between atoms: _270  and  _272
REMARK  110  A    between atoms: _272  and  _273
REMARK  111  A    between atoms: _272  and  _275
REMARK  112  A    between atoms: _275  and  _276
REMARK  113  A    between atoms: _276  and  _277
REMARK  114  A    between atoms: _277  and  _278
REMARK  115  A    between atoms: _278  and  _279
REMARK  116  A    between atoms: _283  and  _285
REMARK  117  A    between atoms: _285  and  _286
REMARK  118  A    between atoms: _289  and  _291
REMARK  119  A    between atoms: _291  and  _292
REMARK  120  A    between atoms: _294  and  _296
REMARK  121  A    between atoms: _296  and  _297
REMARK  122  A    between atoms: _296  and  _299
REMARK  123  A    between atoms: _299  and  _300
REMARK  124  A    between atoms: _305  and  _307
REMARK  125  A    between atoms: _307  and  _308
REMARK  126  A    between atoms: _307  and  _310
REMARK  127  A    between atoms: _310  and  _311
REMARK  128  A    between atoms: _311  and  _312
REMARK  129  A    between atoms: _315  and  _317
REMARK  130  A    between atoms: _317  and  _318
REMARK  131  A    between atoms: _317  and  _320
REMARK  132  A    between atoms: _320  and  _321
REMARK  133  A    between atoms: _323  and  _325
REMARK  134  A    between atoms: _325  and  _326
REMARK  135  A    between atoms: _325  and  _328
REMARK  136  A    between atoms: _328  and  _329
REMARK  137  A    between atoms: _335  and  _337
REMARK  138  A    between atoms: _337  and  _338
REMARK  139  A    between atoms: _337  and  _340
REMARK  140  A    between atoms: _343  and  _345
REMARK  141  A    between atoms: _345  and  _346
REMARK  142  A    between atoms: _345  and  _348
REMARK  143  A    between atoms: _348  and  _349
REMARK  144  A    between atoms: _352  and  _354
REMARK  145  A    between atoms: _354  and  _355
REMARK  146  A    between atoms: _354  and  _357
REMARK  147  A    between atoms: _357  and  _358
REMARK  148  A    between atoms: _361  and  _363
REMARK  149  A    between atoms: _363  and  _364
REMARK  150  A    between atoms: _363  and  _366
REMARK  151  A    between atoms: _366  and  _367
REMARK  152  A    between atoms: _370  and  _372
REMARK  153  A    between atoms: _372  and  _373
REMARK  154  A    between atoms: _372  and  _375
REMARK  155  A    between atoms: _375  and  _376
REMARK  156  A    between atoms: _379  and  _381
REMARK  157  A    between atoms: _381  and  _382
REMARK  158  A    between atoms: _381  and  _384
REMARK  159  A    between atoms: _384  and  _385
REMARK  160  A    between atoms: _390  and  _391
REMARK  161  A    between atoms: _393  and  _395
REMARK  162  A    between atoms: _395  and  _396
REMARK  163  A    between atoms: _395  and  _398
REMARK  164  A    between atoms: _398  and  _399
REMARK  165  A    between atoms: _404  and  _405
REMARK  166  A    between atoms: _407  and  _409
REMARK  167  A    between atoms: _409  and  _410
REMARK  168  A    between atoms: _409  and  _412
REMARK  169  A    between atoms: _412  and  _413
REMARK  170  A    between atoms: _416  and  _418
REMARK  171  A    between atoms: _418  and  _419
REMARK  172  A    between atoms: _418  and  _421
REMARK  173  A    between atoms: _421  and  _422
REMARK  174  A    between atoms: _422  and  _423
REMARK  175  A    between atoms: _428  and  _430
REMARK  176  A    between atoms: _430  and  _431
REMARK  177  A    between atoms: _430  and  _433
REMARK  178  A    between atoms: _436  and  _438
REMARK  179  A    between atoms: _438  and  _439
REMARK  180  A    between atoms: _438  and  _441
REMARK  181  A    between atoms: _441  and  _442
REMARK  182  A    between atoms: _445  and  _447
REMARK  183  A    between atoms: _447  and  _448
REMARK  184  A    between atoms: _447  and  _450
REMARK  185  A    between atoms: _450  and  _451
REMARK  186  A    between atoms: _453  and  _455
REMARK  187  A    between atoms: _455  and  _456
REMARK  188  A    between atoms: _458  and  _460
REMARK  189  A    between atoms: _460  and  _461
REMARK  190  A    between atoms: _460  and  _463
REMARK  191  A    between atoms: _463  and  _464
REMARK  192  A    between atoms: _464  and  _790
REMARK  193  A    between atoms: _465  and  _467
REMARK  194  A    between atoms: _467  and  _468
REMARK  195  A    between atoms: _467  and  _470
REMARK  196  A    between atoms: _470  and  _471
REMARK  197  A    between atoms: _476  and  _477
REMARK  198  A    between atoms: _479  and  _481
REMARK  199  A    between atoms: _481  and  _482
REMARK  200  A    between atoms: _481  and  _484
REMARK  201  A    between atoms: _484  and  _485
REMARK  202  A    between atoms: _485  and  _486
REMARK  203  A    between atoms: _491  and  _493
REMARK  204  A    between atoms: _493  and  _494
REMARK  205  A    between atoms: _493  and  _496
REMARK  206  A    between atoms: _496  and  _497
REMARK  207  A    between atoms: _497  and  _498
REMARK  208  A    between atoms: _503  and  _505
REMARK  209  A    between atoms: _505  and  _506
REMARK  210  A    between atoms: _505  and  _508
REMARK  211  A    between atoms: _508  and  _509
REMARK  212  A    between atoms: _514  and  _515
REMARK  213  A    between atoms: _517  and  _519
REMARK  214  A    between atoms: _519  and  _520
REMARK  215  A    between atoms: _523  and  _525
REMARK  216  A    between atoms: _525  and  _526
REMARK  217  A    between atoms: _525  and  _528
REMARK  218  A    between atoms: _528  and  _529
REMARK  219  A    between atoms: _534  and  _535
REMARK  220  A    between atoms: _537  and  _539
REMARK  221  A    between atoms: _539  and  _540
REMARK  222  A    between atoms: _539  and  _542
REMARK  223  A    between atoms: _542  and  _543
REMARK  224  A    between atoms: _548  and  _549
REMARK  225  A    between atoms: _551  and  _553
REMARK  226  A    between atoms: _553  and  _554
REMARK  227  A    between atoms: _553  and  _556
REMARK  228  A    between atoms: _556  and  _557
REMARK  229  A    between atoms: _560  and  _562
REMARK  230  A    between atoms: _562  and  _563
REMARK  231  A    between atoms: _562  and  _565
REMARK  232  A    between atoms: _565  and  _566
REMARK  233  A    between atoms: _576  and  _578
REMARK  234  A    between atoms: _578  and  _579
REMARK  235  A    between atoms: _582  and  _584
REMARK  236  A    between atoms: _584  and  _585
REMARK  237  A    between atoms: _588  and  _590
REMARK  238  A    between atoms: _590  and  _591
REMARK  239  A    between atoms: _590  and  _593
REMARK  240  A    between atoms: _593  and  _594
REMARK  241  A    between atoms: _597  and  _599
REMARK  242  A    between atoms: _599  and  _600
REMARK  243  A    between atoms: _599  and  _602
REMARK  244  A    between atoms: _602  and  _603
REMARK  245  A    between atoms: _606  and  _608
REMARK  246  A    between atoms: _608  and  _609
REMARK  247  A    between atoms: _608  and  _611
REMARK  248  A    between atoms: _611  and  _612
REMARK  249  A    between atoms: _615  and  _617
REMARK  250  A    between atoms: _617  and  _618
REMARK  251  A    between atoms: _617  and  _620
REMARK  252  A    between atoms: _620  and  _621
REMARK  253  A    between atoms: _621  and  _622
REMARK  254  A    between atoms: _622  and  _623
REMARK  255  A    between atoms: _623  and  _624
REMARK  256  A    between atoms: _628  and  _630
REMARK  257  A    between atoms: _630  and  _631
REMARK  258  A    between atoms: _630  and  _633
REMARK  259  A    between atoms: _633  and  _634
REMARK  260  A    between atoms: _639  and  _641
REMARK  261  A    between atoms: _641  and  _642
REMARK  262  A    between atoms: _641  and  _644
REMARK  263  A    between atoms: _644  and  _645
REMARK  264  A    between atoms: _645  and  _646
REMARK  265  A    between atoms: _646  and  _647
REMARK  266  A    between atoms: _647  and  _648
REMARK  267  A    between atoms: _652  and  _654
REMARK  268  A    between atoms: _654  and  _655
REMARK  269  A    between atoms: _654  and  _657
REMARK  270  A    between atoms: _657  and  _658
REMARK  271  A    between atoms: _668  and  _670
REMARK  272  A    between atoms: _670  and  _671
REMARK  273  A    between atoms: _674  and  _676
REMARK  274  A    between atoms: _676  and  _677
REMARK  275  A    between atoms: _679  and  _681
REMARK  276  A    between atoms: _681  and  _682
REMARK  277  A    between atoms: _685  and  _687
REMARK  278  A    between atoms: _687  and  _688
REMARK  279  A    between atoms: _691  and  _693
REMARK  280  A    between atoms: _693  and  _694
REMARK  281  A    between atoms: _693  and  _696
REMARK  282  A    between atoms: _696  and  _697
REMARK  283  A    between atoms: _697  and  _698
REMARK  284  A    between atoms: _701  and  _703
REMARK  285  A    between atoms: _703  and  _704
REMARK  286  A    between atoms: _703  and  _706
REMARK  287  A    between atoms: _706  and  _707
REMARK  288  A    between atoms: _712  and  _713
REMARK  289  A    between atoms: _715  and  _717
REMARK  290  A    between atoms: _717  and  _718
REMARK  291  A    between atoms: _717  and  _720
REMARK  292  A    between atoms: _720  and  _721
REMARK  293  A    between atoms: _726  and  _727
REMARK  294  A    between atoms: _729  and  _731
REMARK  295  A    between atoms: _731  and  _732
REMARK  296  A    between atoms: _731  and  _734
REMARK  297  A    between atoms: _734  and  _735
REMARK  298  A    between atoms: _735  and  _736
REMARK  299  A    between atoms: _736  and  _737
REMARK  300  A    between atoms: _746  and  _748
REMARK  301  A    between atoms: _748  and  _749
REMARK  302  A    between atoms: _752  and  _754
REMARK  303  A    between atoms: _754  and  _755
REMARK  304  A    between atoms: _754  and  _757
REMARK  305  A    between atoms: _757  and  _758
REMARK  306  A    between atoms: _763  and  _764
REMARK  307  A    between atoms: _766  and  _768
REMARK  308  A    between atoms: _768  and  _769
REMARK  309  A    between atoms: _768  and  _771
REMARK  310  A    between atoms: _771  and  _772
REMARK  311  A    between atoms: _775  and  _777
REMARK  312  A    between atoms: _777  and  _778
REMARK  313  A    between atoms: _777  and  _780
REMARK  314  A    between atoms: _780  and  _781
REMARK  315  A    between atoms: _784  and  _786
REMARK  316  A    between atoms: _786  and  _787
REMARK  317  A    between atoms: _786  and  _789
REMARK  318  A    between atoms: _789  and  _790
REMARK  319  A    between atoms: _791  and  _793
REMARK  320  A    between atoms: _793  and  _794
REMARK  321  A    between atoms: _793  and  _796
REMARK  322  A    between atoms: _799  and  _801
REMARK  323  A    between atoms: _801  and  _802
REMARK  324  A    between atoms: _801  and  _804
REMARK  325  A    between atoms: _804  and  _805
REMARK  326  A    between atoms: _805  and  _806
REMARK  327  A    between atoms: _809  and  _811
REMARK  328  A    between atoms: _811  and  _812
REMARK  329  A    between atoms: _811  and  _814
REMARK  330  A    between atoms: _814  and  _815
REMARK  331  A    between atoms: _825  and  _827
REMARK  332  A    between atoms: _827  and  _828
REMARK  333  A    between atoms: _827  and  _830
REMARK  334  A    between atoms: _830  and  _831
REMARK  335  A    between atoms: _834  and  _836
REMARK  336  A    between atoms: _836  and  _837
REMARK  337  A    between atoms: _836  and  _839
REMARK  338  A    between atoms: _839  and  _840
REMARK  339  A    between atoms: _840  and  _841
REMARK  340  A    between atoms: _841  and  _842
REMARK  341  A    between atoms: _851  and  _853
REMARK  342  A    between atoms: _853  and  _854
REMARK  343  A    between atoms: _853  and  _856
REMARK  344  A    between atoms: _856  and  _857
REMARK  345  A    between atoms: _862  and  _863
REMARK                            x       y       z     vdW  Elec       q    Type
REMARK                         _______ _______ _______ _____ _____    ______ ____
ROOT
ATOM      1  O   HOH     1      46.640  61.803  -0.151  0.00  0.00    +0.000 OA
ENDROOT
TORSDOF 0
