REMARK  Name = ../refined-set-2016/4mjp/4mjp_pocket.pdb
REMARK  103 active torsions:
REMARK  status: ('A' for Active; 'I' for Inactive)
REMARK    1  A    between atoms: _1  and  _3
REMARK    2  A    between atoms: _3  and  _4
REMARK    3  A    between atoms: _3  and  _6
REMARK    4  A    between atoms: _6  and  _7
REMARK    5  A    between atoms: _10  and  _12
REMARK    6  A    between atoms: _12  and  _13
REMARK    7  A    between atoms: _12  and  _15
REMARK    8  A    between atoms: _15  and  _16
REMARK    9  A    between atoms: _16  and  _17
REMARK   10  A    between atoms: _17  and  _18
REMARK   11  A    between atoms: _27  and  _29
REMARK   12  A    between atoms: _29  and  _30
REMARK   13  A    between atoms: _29  and  _32
REMARK   14  A    between atoms: _32  and  _33
REMARK   15  A    between atoms: _38  and  _39
REMARK   16  A    between atoms: _41  and  _43
REMARK   17  A    between atoms: _43  and  _44
REMARK   18  A    between atoms: _43  and  _46
REMARK   19  A    between atoms: _46  and  _47
REMARK   20  A    between atoms: _50  and  _52
REMARK   21  A    between atoms: _52  and  _53
REMARK   22  A    between atoms: _52  and  _55
REMARK   23  A    between atoms: _58  and  _60
REMARK   24  A    between atoms: _60  and  _61
REMARK   25  A    between atoms: _64  and  _66
REMARK   26  A    between atoms: _66  and  _67
REMARK   27  A    between atoms: _66  and  _69
REMARK   28  A    between atoms: _69  and  _70
REMARK   29  A    between atoms: _73  and  _75
REMARK   30  A    between atoms: _75  and  _76
REMARK   31  A    between atoms: _75  and  _78
REMARK   32  A    between atoms: _78  and  _79
REMARK   33  A    between atoms: _82  and  _84
REMARK   34  A    between atoms: _84  and  _85
REMARK   35  A    between atoms: _87  and  _89
REMARK   36  A    between atoms: _89  and  _90
REMARK   37  A    between atoms: _89  and  _92
REMARK   38  A    between atoms: _92  and  _93
REMARK   39  A    between atoms: _98  and  _100
REMARK   40  A    between atoms: _100  and  _101
REMARK   41  A    between atoms: _100  and  _103
REMARK   42  A    between atoms: _103  and  _104
REMARK   43  A    between atoms: _104  and  _105
REMARK   44  A    between atoms: _105  and  _106
REMARK   45  A    between atoms: _115  and  _117
REMARK   46  A    between atoms: _117  and  _118
REMARK   47  A    between atoms: _117  and  _120
REMARK   48  A    between atoms: _120  and  _121
REMARK   49  A    between atoms: _124  and  _126
REMARK   50  A    between atoms: _126  and  _127
REMARK   51  A    between atoms: _130  and  _132
REMARK   52  A    between atoms: _132  and  _133
REMARK   53  A    between atoms: _132  and  _135
REMARK   54  A    between atoms: _138  and  _140
REMARK   55  A    between atoms: _140  and  _141
REMARK   56  A    between atoms: _140  and  _143
REMARK   57  A    between atoms: _143  and  _144
REMARK   58  A    between atoms: _144  and  _145
REMARK   59  A    between atoms: _145  and  _146
REMARK   60  A    between atoms: _155  and  _157
REMARK   61  A    between atoms: _157  and  _158
REMARK   62  A    between atoms: _157  and  _160
REMARK   63  A    between atoms: _160  and  _161
REMARK   64  A    between atoms: _168  and  _169
REMARK   65  A    between atoms: _174  and  _176
REMARK   66  A    between atoms: _176  and  _177
REMARK   67  A    between atoms: _176  and  _179
REMARK   68  A    between atoms: _179  and  _180
REMARK   69  A    between atoms: _183  and  _185
REMARK   70  A    between atoms: _185  and  _186
REMARK   71  A    between atoms: _185  and  _188
REMARK   72  A    between atoms: _188  and  _189
REMARK   73  A    between atoms: _194  and  _195
REMARK   74  A    between atoms: _197  and  _199
REMARK   75  A    between atoms: _199  and  _200
REMARK   76  A    between atoms: _199  and  _202
REMARK   77  A    between atoms: _202  and  _203
REMARK   78  A    between atoms: _203  and  _204
REMARK   79  A    between atoms: _204  and  _205
REMARK   80  A    between atoms: _214  and  _216
REMARK   81  A    between atoms: _216  and  _217
REMARK   82  A    between atoms: _216  and  _219
REMARK   83  A    between atoms: _219  and  _220
REMARK   84  A    between atoms: _220  and  _221
REMARK   85  A    between atoms: _221  and  _222
REMARK   86  A    between atoms: _231  and  _233
REMARK   87  A    between atoms: _233  and  _234
REMARK   88  A    between atoms: _233  and  _236
REMARK   89  A    between atoms: _239  and  _241
REMARK   90  A    between atoms: _241  and  _242
REMARK   91  A    between atoms: _241  and  _244
REMARK   92  A    between atoms: _244  and  _245
REMARK   93  A    between atoms: _248  and  _250
REMARK   94  A    between atoms: _250  and  _251
REMARK   95  A    between atoms: _250  and  _253
REMARK   96  A    between atoms: _256  and  _258
REMARK   97  A    between atoms: _258  and  _259
REMARK   98  A    between atoms: _258  and  _261
REMARK   99  A    between atoms: _264  and  _266
REMARK  100  A    between atoms: _266  and  _267
REMARK  101  A    between atoms: _266  and  _269
REMARK  102  A    between atoms: _269  and  _270
REMARK  103  A    between atoms: _270  and  _271
REMARK                            x       y       z     vdW  Elec       q    Type
REMARK                         _______ _______ _______ _____ _____    ______ ____
ROOT
ATOM      1  CA  ASP A   1     -15.699 -19.435  31.399  0.00  0.00    +0.144 C 
ENDROOT
BRANCH   1   2
ATOM      2  N   ASP A   1     -15.755 -18.348  30.436  0.00  0.00    -0.239 NA
ATOM      3  H   ASP A   1     -16.091 -17.413  30.743  0.00  0.00    +0.142 HD
ENDBRANCH   1   2
BRANCH   1   4
ATOM      4  C   ASP A   1     -16.808 -20.443  31.102  0.00  0.00    +0.225 C 
ATOM      5  O   ASP A   1     -17.899 -20.056  30.709  0.00  0.00    -0.287 OA
ENDBRANCH   1   4
BRANCH   1   6
ATOM      6  CB  ASP A   1     -15.826 -18.882  32.824  0.00  0.00    +0.139 C 
BRANCH   6   7
ATOM      7  CG  ASP A   1     -15.293 -19.844  33.878  0.00  0.00    +0.367 C 
ATOM      8  OD2 ASP A   1     -14.314 -19.486  34.583  0.00  0.00    -0.246 OA
ATOM      9  OD1 ASP A   1     -15.861 -20.944  34.011  0.00  0.00    -0.246 OA
ENDBRANCH   6   7
ENDBRANCH   1   6
TORSDOF 4
REMARK  Name = ../refined-set-2016/4mjp/4mjp_pocket.pdb
REMARK  103 active torsions:
REMARK  status: ('A' for Active; 'I' for Inactive)
REMARK    1  A    between atoms: _1  and  _3
REMARK    2  A    between atoms: _3  and  _4
REMARK    3  A    between atoms: _3  and  _6
REMARK    4  A    between atoms: _6  and  _7
REMARK    5  A    between atoms: _10  and  _12
REMARK    6  A    between atoms: _12  and  _13
REMARK    7  A    between atoms: _12  and  _15
REMARK    8  A    between atoms: _15  and  _16
REMARK    9  A    between atoms: _16  and  _17
REMARK   10  A    between atoms: _17  and  _18
REMARK   11  A    between atoms: _27  and  _29
REMARK   12  A    between atoms: _29  and  _30
REMARK   13  A    between atoms: _29  and  _32
REMARK   14  A    between atoms: _32  and  _33
REMARK   15  A    between atoms: _38  and  _39
REMARK   16  A    between atoms: _41  and  _43
REMARK   17  A    between atoms: _43  and  _44
REMARK   18  A    between atoms: _43  and  _46
REMARK   19  A    between atoms: _46  and  _47
REMARK   20  A    between atoms: _50  and  _52
REMARK   21  A    between atoms: _52  and  _53
REMARK   22  A    between atoms: _52  and  _55
REMARK   23  A    between atoms: _58  and  _60
REMARK   24  A    between atoms: _60  and  _61
REMARK   25  A    between atoms: _64  and  _66
REMARK   26  A    between atoms: _66  and  _67
REMARK   27  A    between atoms: _66  and  _69
REMARK   28  A    between atoms: _69  and  _70
REMARK   29  A    between atoms: _73  and  _75
REMARK   30  A    between atoms: _75  and  _76
REMARK   31  A    between atoms: _75  and  _78
REMARK   32  A    between atoms: _78  and  _79
REMARK   33  A    between atoms: _82  and  _84
REMARK   34  A    between atoms: _84  and  _85
REMARK   35  A    between atoms: _87  and  _89
REMARK   36  A    between atoms: _89  and  _90
REMARK   37  A    between atoms: _89  and  _92
REMARK   38  A    between atoms: _92  and  _93
REMARK   39  A    between atoms: _98  and  _100
REMARK   40  A    between atoms: _100  and  _101
REMARK   41  A    between atoms: _100  and  _103
REMARK   42  A    between atoms: _103  and  _104
REMARK   43  A    between atoms: _104  and  _105
REMARK   44  A    between atoms: _105  and  _106
REMARK   45  A    between atoms: _115  and  _117
REMARK   46  A    between atoms: _117  and  _118
REMARK   47  A    between atoms: _117  and  _120
REMARK   48  A    between atoms: _120  and  _121
REMARK   49  A    between atoms: _124  and  _126
REMARK   50  A    between atoms: _126  and  _127
REMARK   51  A    between atoms: _130  and  _132
REMARK   52  A    between atoms: _132  and  _133
REMARK   53  A    between atoms: _132  and  _135
REMARK   54  A    between atoms: _138  and  _140
REMARK   55  A    between atoms: _140  and  _141
REMARK   56  A    between atoms: _140  and  _143
REMARK   57  A    between atoms: _143  and  _144
REMARK   58  A    between atoms: _144  and  _145
REMARK   59  A    between atoms: _145  and  _146
REMARK   60  A    between atoms: _155  and  _157
REMARK   61  A    between atoms: _157  and  _158
REMARK   62  A    between atoms: _157  and  _160
REMARK   63  A    between atoms: _160  and  _161
REMARK   64  A    between atoms: _168  and  _169
REMARK   65  A    between atoms: _174  and  _176
REMARK   66  A    between atoms: _176  and  _177
REMARK   67  A    between atoms: _176  and  _179
REMARK   68  A    between atoms: _179  and  _180
REMARK   69  A    between atoms: _183  and  _185
REMARK   70  A    between atoms: _185  and  _186
REMARK   71  A    between atoms: _185  and  _188
REMARK   72  A    between atoms: _188  and  _189
REMARK   73  A    between atoms: _194  and  _195
REMARK   74  A    between atoms: _197  and  _199
REMARK   75  A    between atoms: _199  and  _200
REMARK   76  A    between atoms: _199  and  _202
REMARK   77  A    between atoms: _202  and  _203
REMARK   78  A    between atoms: _203  and  _204
REMARK   79  A    between atoms: _204  and  _205
REMARK   80  A    between atoms: _214  and  _216
REMARK   81  A    between atoms: _216  and  _217
REMARK   82  A    between atoms: _216  and  _219
REMARK   83  A    between atoms: _219  and  _220
REMARK   84  A    between atoms: _220  and  _221
REMARK   85  A    between atoms: _221  and  _222
REMARK   86  A    between atoms: _231  and  _233
REMARK   87  A    between atoms: _233  and  _234
REMARK   88  A    between atoms: _233  and  _236
REMARK   89  A    between atoms: _239  and  _241
REMARK   90  A    between atoms: _241  and  _242
REMARK   91  A    between atoms: _241  and  _244
REMARK   92  A    between atoms: _244  and  _245
REMARK   93  A    between atoms: _248  and  _250
REMARK   94  A    between atoms: _250  and  _251
REMARK   95  A    between atoms: _250  and  _253
REMARK   96  A    between atoms: _256  and  _258
REMARK   97  A    between atoms: _258  and  _259
REMARK   98  A    between atoms: _258  and  _261
REMARK   99  A    between atoms: _264  and  _266
REMARK  100  A    between atoms: _266  and  _267
REMARK  101  A    between atoms: _266  and  _269
REMARK  102  A    between atoms: _269  and  _270
REMARK  103  A    between atoms: _270  and  _271
REMARK                            x       y       z     vdW  Elec       q    Type
REMARK                         _______ _______ _______ _____ _____    ______ ____
ROOT
ATOM      1  NE  ARG A   1     -16.174 -21.405  37.049  0.00  0.00    -0.265 N 
ATOM      2  CZ  ARG A   1     -15.248 -20.981  37.900  0.00  0.00    +0.342 C 
ATOM      3  NH2 ARG A   1     -15.364 -21.223  39.202  0.00  0.00    -0.292 N 
ATOM      4 HH21 ARG A   1     -14.633 -20.886  39.861  0.00  0.00    +0.255 HD
ATOM      5 HH22 ARG A   1     -16.186 -21.749  39.562  0.00  0.00    +0.255 HD
ATOM      6  NH1 ARG A   1     -14.199 -20.311  37.442  0.00  0.00    -0.292 N 
ATOM      7 HH11 ARG A   1     -13.468 -19.975  38.101  0.00  0.00    +0.255 HD
ATOM      8 HH12 ARG A   1     -14.107 -20.122  36.424  0.00  0.00    +0.255 HD
ATOM      9  HE  ARG A   1     -16.035 -21.192  36.040  0.00  0.00    +0.259 HD
ENDROOT
BRANCH   1  10
ATOM     10  CD  ARG A   1     -17.373 -22.148  37.425  0.00  0.00    +0.174 C 
BRANCH  10  11
ATOM     11  CG  ARG A   1     -18.260 -22.421  36.223  0.00  0.00    +0.045 C 
BRANCH  11  12
ATOM     12  CB  ARG A   1     -18.761 -21.138  35.573  0.00  0.00    +0.029 C 
BRANCH  12  13
ATOM     13  CA  ARG A   1     -19.388 -21.367  34.206  0.00  0.00    +0.133 C 
BRANCH  13  14
ATOM     14  N   ARG A   1     -18.399 -21.879  33.259  0.00  0.00    -0.239 NA
ATOM     15  H   ARG A   1     -17.389 -21.771  33.480  0.00  0.00    +0.142 HD
ENDBRANCH  13  14
BRANCH  13  16
ATOM     16  C   ARG A   1     -19.959 -20.089  33.607  0.00  0.00    +0.224 C 
ATOM     17  O   ARG A   1     -19.515 -18.974  33.893  0.00  0.00    -0.287 OA
ENDBRANCH  13  16
ENDBRANCH  12  13
ENDBRANCH  11  12
ENDBRANCH  10  11
ENDBRANCH   1  10
TORSDOF 6
REMARK  Name = ../refined-set-2016/4mjp/4mjp_pocket.pdb
REMARK  103 active torsions:
REMARK  status: ('A' for Active; 'I' for Inactive)
REMARK    1  A    between atoms: _1  and  _3
REMARK    2  A    between atoms: _3  and  _4
REMARK    3  A    between atoms: _3  and  _6
REMARK    4  A    between atoms: _6  and  _7
REMARK    5  A    between atoms: _10  and  _12
REMARK    6  A    between atoms: _12  and  _13
REMARK    7  A    between atoms: _12  and  _15
REMARK    8  A    between atoms: _15  and  _16
REMARK    9  A    between atoms: _16  and  _17
REMARK   10  A    between atoms: _17  and  _18
REMARK   11  A    between atoms: _27  and  _29
REMARK   12  A    between atoms: _29  and  _30
REMARK   13  A    between atoms: _29  and  _32
REMARK   14  A    between atoms: _32  and  _33
REMARK   15  A    between atoms: _38  and  _39
REMARK   16  A    between atoms: _41  and  _43
REMARK   17  A    between atoms: _43  and  _44
REMARK   18  A    between atoms: _43  and  _46
REMARK   19  A    between atoms: _46  and  _47
REMARK   20  A    between atoms: _50  and  _52
REMARK   21  A    between atoms: _52  and  _53
REMARK   22  A    between atoms: _52  and  _55
REMARK   23  A    between atoms: _58  and  _60
REMARK   24  A    between atoms: _60  and  _61
REMARK   25  A    between atoms: _64  and  _66
REMARK   26  A    between atoms: _66  and  _67
REMARK   27  A    between atoms: _66  and  _69
REMARK   28  A    between atoms: _69  and  _70
REMARK   29  A    between atoms: _73  and  _75
REMARK   30  A    between atoms: _75  and  _76
REMARK   31  A    between atoms: _75  and  _78
REMARK   32  A    between atoms: _78  and  _79
REMARK   33  A    between atoms: _82  and  _84
REMARK   34  A    between atoms: _84  and  _85
REMARK   35  A    between atoms: _87  and  _89
REMARK   36  A    between atoms: _89  and  _90
REMARK   37  A    between atoms: _89  and  _92
REMARK   38  A    between atoms: _92  and  _93
REMARK   39  A    between atoms: _98  and  _100
REMARK   40  A    between atoms: _100  and  _101
REMARK   41  A    between atoms: _100  and  _103
REMARK   42  A    between atoms: _103  and  _104
REMARK   43  A    between atoms: _104  and  _105
REMARK   44  A    between atoms: _105  and  _106
REMARK   45  A    between atoms: _115  and  _117
REMARK   46  A    between atoms: _117  and  _118
REMARK   47  A    between atoms: _117  and  _120
REMARK   48  A    between atoms: _120  and  _121
REMARK   49  A    between atoms: _124  and  _126
REMARK   50  A    between atoms: _126  and  _127
REMARK   51  A    between atoms: _130  and  _132
REMARK   52  A    between atoms: _132  and  _133
REMARK   53  A    between atoms: _132  and  _135
REMARK   54  A    between atoms: _138  and  _140
REMARK   55  A    between atoms: _140  and  _141
REMARK   56  A    between atoms: _140  and  _143
REMARK   57  A    between atoms: _143  and  _144
REMARK   58  A    between atoms: _144  and  _145
REMARK   59  A    between atoms: _145  and  _146
REMARK   60  A    between atoms: _155  and  _157
REMARK   61  A    between atoms: _157  and  _158
REMARK   62  A    between atoms: _157  and  _160
REMARK   63  A    between atoms: _160  and  _161
REMARK   64  A    between atoms: _168  and  _169
REMARK   65  A    between atoms: _174  and  _176
REMARK   66  A    between atoms: _176  and  _177
REMARK   67  A    between atoms: _176  and  _179
REMARK   68  A    between atoms: _179  and  _180
REMARK   69  A    between atoms: _183  and  _185
REMARK   70  A    between atoms: _185  and  _186
REMARK   71  A    between atoms: _185  and  _188
REMARK   72  A    between atoms: _188  and  _189
REMARK   73  A    between atoms: _194  and  _195
REMARK   74  A    between atoms: _197  and  _199
REMARK   75  A    between atoms: _199  and  _200
REMARK   76  A    between atoms: _199  and  _202
REMARK   77  A    between atoms: _202  and  _203
REMARK   78  A    between atoms: _203  and  _204
REMARK   79  A    between atoms: _204  and  _205
REMARK   80  A    between atoms: _214  and  _216
REMARK   81  A    between atoms: _216  and  _217
REMARK   82  A    between atoms: _216  and  _219
REMARK   83  A    between atoms: _219  and  _220
REMARK   84  A    between atoms: _220  and  _221
REMARK   85  A    between atoms: _221  and  _222
REMARK   86  A    between atoms: _231  and  _233
REMARK   87  A    between atoms: _233  and  _234
REMARK   88  A    between atoms: _233  and  _236
REMARK   89  A    between atoms: _239  and  _241
REMARK   90  A    between atoms: _241  and  _242
REMARK   91  A    between atoms: _241  and  _244
REMARK   92  A    between atoms: _244  and  _245
REMARK   93  A    between atoms: _248  and  _250
REMARK   94  A    between atoms: _250  and  _251
REMARK   95  A    between atoms: _250  and  _253
REMARK   96  A    between atoms: _256  and  _258
REMARK   97  A    between atoms: _258  and  _259
REMARK   98  A    between atoms: _258  and  _261
REMARK   99  A    between atoms: _264  and  _266
REMARK  100  A    between atoms: _266  and  _267
REMARK  101  A    between atoms: _266  and  _269
REMARK  102  A    between atoms: _269  and  _270
REMARK  103  A    between atoms: _270  and  _271
REMARK                            x       y       z     vdW  Elec       q    Type
REMARK                         _______ _______ _______ _____ _____    ______ ____
ROOT
ATOM      1  CA  TYR A   1     -23.133 -17.215  34.664  0.00  0.00    +0.149 C 
ENDROOT
BRANCH   1   2
ATOM      2  C   TYR A   1     -22.102 -16.184  35.166  0.00  0.00    +0.239 C 
ATOM      3  O   TYR A   1     -22.500 -15.147  35.688  0.00  0.00    -0.274 OA
ATOM      4  N   LEU A   2     -20.807 -16.458  35.002  0.00  0.00    -0.298 N 
ATOM      5  H   LEU A   2     -20.531 -17.391  34.635  0.00  0.00    +0.150 HD
BRANCH   4   6
ATOM      6  CA  LEU A   2     -19.754 -15.477  35.326  0.00  0.00    +0.137 C 
BRANCH   6   7
ATOM      7  C   LEU A   2     -19.386 -14.557  34.165  0.00  0.00    +0.227 C 
ATOM      8  O   LEU A   2     -18.687 -13.557  34.370  0.00  0.00    -0.286 OA
ENDBRANCH   6   7
BRANCH   6   9
ATOM      9  CB  LEU A   2     -18.491 -16.186  35.786  0.00  0.00    +0.028 C 
BRANCH   9  10
ATOM     10  CG  LEU A   2     -18.610 -17.139  36.967  0.00  0.00    +0.002 C 
ATOM     11  CD2 LEU A   2     -18.973 -16.367  38.224  0.00  0.00    +0.000 C 
ATOM     12  CD1 LEU A   2     -17.323 -17.923  37.149  0.00  0.00    +0.000 C 
ENDBRANCH   9  10
ENDBRANCH   6   9
ENDBRANCH   4   6
ENDBRANCH   1   2
BRANCH   1  13
ATOM     13  N   TYR A   1     -22.570 -18.260  33.802  0.00  0.00    -0.238 NA
ATOM     14  H   TYR A   1     -22.580 -19.240  34.150  0.00  0.00    +0.142 HD
ENDBRANCH   1  13
BRANCH   1  15
ATOM     15  CB  TYR A   1     -23.873 -17.828  35.867  0.00  0.00    +0.053 C 
BRANCH  15  16
ATOM     16  CG  TYR A   1     -23.041 -18.837  36.634  0.00  0.00    -0.020 A 
ATOM     17  CD2 TYR A   1     -22.089 -18.419  37.555  0.00  0.00    -0.001 A 
ATOM     18  CE2 TYR A   1     -21.305 -19.335  38.233  0.00  0.00    +0.036 A 
ATOM     19  CZ  TYR A   1     -21.477 -20.688  37.985  0.00  0.00    +0.134 A 
ATOM     20  CE1 TYR A   1     -22.407 -21.127  37.061  0.00  0.00    +0.036 A 
ATOM     21  CD1 TYR A   1     -23.184 -20.204  36.399  0.00  0.00    -0.001 A 
BRANCH  19  22
ATOM     22  OH  TYR A   1     -20.693 -21.593  38.642  0.00  0.00    -0.506 OA
ATOM     23  HH  TYR A   1     -21.268 -22.215  39.155  0.00  0.00    +0.292 HD
ENDBRANCH  19  22
ENDBRANCH  15  16
ENDBRANCH   1  15
TORSDOF 9
REMARK  Name = ../refined-set-2016/4mjp/4mjp_pocket.pdb
REMARK  103 active torsions:
REMARK  status: ('A' for Active; 'I' for Inactive)
REMARK    1  A    between atoms: _1  and  _3
REMARK    2  A    between atoms: _3  and  _4
REMARK    3  A    between atoms: _3  and  _6
REMARK    4  A    between atoms: _6  and  _7
REMARK    5  A    between atoms: _10  and  _12
REMARK    6  A    between atoms: _12  and  _13
REMARK    7  A    between atoms: _12  and  _15
REMARK    8  A    between atoms: _15  and  _16
REMARK    9  A    between atoms: _16  and  _17
REMARK   10  A    between atoms: _17  and  _18
REMARK   11  A    between atoms: _27  and  _29
REMARK   12  A    between atoms: _29  and  _30
REMARK   13  A    between atoms: _29  and  _32
REMARK   14  A    between atoms: _32  and  _33
REMARK   15  A    between atoms: _38  and  _39
REMARK   16  A    between atoms: _41  and  _43
REMARK   17  A    between atoms: _43  and  _44
REMARK   18  A    between atoms: _43  and  _46
REMARK   19  A    between atoms: _46  and  _47
REMARK   20  A    between atoms: _50  and  _52
REMARK   21  A    between atoms: _52  and  _53
REMARK   22  A    between atoms: _52  and  _55
REMARK   23  A    between atoms: _58  and  _60
REMARK   24  A    between atoms: _60  and  _61
REMARK   25  A    between atoms: _64  and  _66
REMARK   26  A    between atoms: _66  and  _67
REMARK   27  A    between atoms: _66  and  _69
REMARK   28  A    between atoms: _69  and  _70
REMARK   29  A    between atoms: _73  and  _75
REMARK   30  A    between atoms: _75  and  _76
REMARK   31  A    between atoms: _75  and  _78
REMARK   32  A    between atoms: _78  and  _79
REMARK   33  A    between atoms: _82  and  _84
REMARK   34  A    between atoms: _84  and  _85
REMARK   35  A    between atoms: _87  and  _89
REMARK   36  A    between atoms: _89  and  _90
REMARK   37  A    between atoms: _89  and  _92
REMARK   38  A    between atoms: _92  and  _93
REMARK   39  A    between atoms: _98  and  _100
REMARK   40  A    between atoms: _100  and  _101
REMARK   41  A    between atoms: _100  and  _103
REMARK   42  A    between atoms: _103  and  _104
REMARK   43  A    between atoms: _104  and  _105
REMARK   44  A    between atoms: _105  and  _106
REMARK   45  A    between atoms: _115  and  _117
REMARK   46  A    between atoms: _117  and  _118
REMARK   47  A    between atoms: _117  and  _120
REMARK   48  A    between atoms: _120  and  _121
REMARK   49  A    between atoms: _124  and  _126
REMARK   50  A    between atoms: _126  and  _127
REMARK   51  A    between atoms: _130  and  _132
REMARK   52  A    between atoms: _132  and  _133
REMARK   53  A    between atoms: _132  and  _135
REMARK   54  A    between atoms: _138  and  _140
REMARK   55  A    between atoms: _140  and  _141
REMARK   56  A    between atoms: _140  and  _143
REMARK   57  A    between atoms: _143  and  _144
REMARK   58  A    between atoms: _144  and  _145
REMARK   59  A    between atoms: _145  and  _146
REMARK   60  A    between atoms: _155  and  _157
REMARK   61  A    between atoms: _157  and  _158
REMARK   62  A    between atoms: _157  and  _160
REMARK   63  A    between atoms: _160  and  _161
REMARK   64  A    between atoms: _168  and  _169
REMARK   65  A    between atoms: _174  and  _176
REMARK   66  A    between atoms: _176  and  _177
REMARK   67  A    between atoms: _176  and  _179
REMARK   68  A    between atoms: _179  and  _180
REMARK   69  A    between atoms: _183  and  _185
REMARK   70  A    between atoms: _185  and  _186
REMARK   71  A    between atoms: _185  and  _188
REMARK   72  A    between atoms: _188  and  _189
REMARK   73  A    between atoms: _194  and  _195
REMARK   74  A    between atoms: _197  and  _199
REMARK   75  A    between atoms: _199  and  _200
REMARK   76  A    between atoms: _199  and  _202
REMARK   77  A    between atoms: _202  and  _203
REMARK   78  A    between atoms: _203  and  _204
REMARK   79  A    between atoms: _204  and  _205
REMARK   80  A    between atoms: _214  and  _216
REMARK   81  A    between atoms: _216  and  _217
REMARK   82  A    between atoms: _216  and  _219
REMARK   83  A    between atoms: _219  and  _220
REMARK   84  A    between atoms: _220  and  _221
REMARK   85  A    between atoms: _221  and  _222
REMARK   86  A    between atoms: _231  and  _233
REMARK   87  A    between atoms: _233  and  _234
REMARK   88  A    between atoms: _233  and  _236
REMARK   89  A    between atoms: _239  and  _241
REMARK   90  A    between atoms: _241  and  _242
REMARK   91  A    between atoms: _241  and  _244
REMARK   92  A    between atoms: _244  and  _245
REMARK   93  A    between atoms: _248  and  _250
REMARK   94  A    between atoms: _250  and  _251
REMARK   95  A    between atoms: _250  and  _253
REMARK   96  A    between atoms: _256  and  _258
REMARK   97  A    between atoms: _258  and  _259
REMARK   98  A    between atoms: _258  and  _261
REMARK   99  A    between atoms: _264  and  _266
REMARK  100  A    between atoms: _266  and  _267
REMARK  101  A    between atoms: _266  and  _269
REMARK  102  A    between atoms: _269  and  _270
REMARK  103  A    between atoms: _270  and  _271
REMARK                            x       y       z     vdW  Elec       q    Type
REMARK                         _______ _______ _______ _____ _____    ______ ____
ROOT
ATOM      1  CA  HIS A   6     -10.995 -15.515  41.496  0.00  0.00    +0.155 C 
ENDROOT
BRANCH   1   2
ATOM      2  C   HIS A   6     -10.932 -14.201  42.261  0.00  0.00    +0.241 C 
ATOM      3  O   HIS A   6     -10.596 -14.201  43.435  0.00  0.00    -0.273 OA
ATOM      4  N   ARG A   7     -11.259 -13.097  41.591  0.00  0.00    -0.297 N 
ATOM      5  H   ARG A   7     -11.489 -13.176  40.580  0.00  0.00    +0.150 HD
BRANCH   4   6
ATOM      6  CA  ARG A   7     -11.307 -11.776  42.224  0.00  0.00    +0.149 C 
BRANCH   6   7
ATOM      7  C   ARG A   7     -12.670 -11.125  41.982  0.00  0.00    +0.241 C 
ATOM      8  N   LEU A   8     -12.992 -10.149  42.813  0.00  0.00    -0.297 N 
ATOM      9  H   LEU A   8     -12.254  -9.745  43.425  0.00  0.00    +0.150 HD
ATOM     10  O   ARG A   7     -13.415 -11.512  41.081  0.00  0.00    -0.273 OA
BRANCH   8  11
ATOM     11  CA  LEU A   8     -14.351  -9.620  42.900  0.00  0.00    +0.149 C 
BRANCH  11  12
ATOM     12  C   LEU A   8     -14.315  -8.101  42.808  0.00  0.00    +0.241 C 
ATOM     13  O   LEU A   8     -13.453  -7.483  43.413  0.00  0.00    -0.273 OA
ATOM     14  N   ALA A   9     -15.262  -7.536  42.067  0.00  0.00    -0.297 N 
ATOM     15  H   ALA A   9     -15.866  -8.151  41.485  0.00  0.00    +0.150 HD
BRANCH  14  16
ATOM     16  CA  ALA A   9     -15.498  -6.093  42.028  0.00  0.00    +0.149 C 
ATOM     17  CB  ALA A   9     -15.137  -5.551  40.665  0.00  0.00    +0.031 C 
BRANCH  16  18
ATOM     18  C   ALA A   9     -16.976  -5.833  42.320  0.00  0.00    +0.241 C 
ATOM     19  N   VAL A  10     -17.247  -4.859  43.183  0.00  0.00    -0.298 N 
ATOM     20  H   VAL A  10     -16.451  -4.356  43.625  0.00  0.00    +0.150 HD
ATOM     21  O   ALA A   9     -17.838  -6.520  41.784  0.00  0.00    -0.273 OA
BRANCH  19  22
ATOM     22  CA  VAL A  10     -18.604  -4.459  43.542  0.00  0.00    +0.137 C 
BRANCH  22  23
ATOM     23  CB  VAL A  10     -18.943  -4.866  44.993  0.00  0.00    +0.026 C 
ATOM     24  CG2 VAL A  10     -20.384  -4.495  45.332  0.00  0.00    +0.002 C 
ATOM     25  CG1 VAL A  10     -18.710  -6.350  45.192  0.00  0.00    +0.002 C 
ENDBRANCH  22  23
BRANCH  22  26
ATOM     26  C   VAL A  10     -18.667  -2.943  43.474  0.00  0.00    +0.227 C 
ATOM     27  O   VAL A  10     -17.740  -2.285  43.903  0.00  0.00    -0.286 OA
ENDBRANCH  22  26
ENDBRANCH  19  22
ENDBRANCH  16  18
ENDBRANCH  14  16
ENDBRANCH  11  12
BRANCH  11  28
ATOM     28  CB  LEU A   8     -14.976  -9.991  44.240  0.00  0.00    +0.029 C 
BRANCH  28  29
ATOM     29  CG  LEU A   8     -16.360  -9.427  44.602  0.00  0.00    +0.002 C 
ATOM     30  CD2 LEU A   8     -16.702  -9.695  46.071  0.00  0.00    +0.000 C 
ATOM     31  CD1 LEU A   8     -17.411 -10.027  43.697  0.00  0.00    +0.000 C 
ENDBRANCH  28  29
ENDBRANCH  11  28
ENDBRANCH   8  11
ENDBRANCH   6   7
BRANCH   6  32
ATOM     32  CB  ARG A   7     -10.171 -10.867  41.740  0.00  0.00    +0.033 C 
BRANCH  32  33
ATOM     33  CG  ARG A   7      -9.731 -11.041  40.288  0.00  0.00    +0.045 C 
BRANCH  33  34
ATOM     34  CD  ARG A   7     -10.640 -10.341  39.301  0.00  0.00    +0.174 C 
BRANCH  34  35
ATOM     35  NE  ARG A   7     -10.151 -10.529  37.930  0.00  0.00    -0.265 N 
ATOM     36  HE  ARG A   7     -10.574 -11.298  37.372  0.00  0.00    +0.259 HD
ATOM     37  CZ  ARG A   7      -9.209  -9.794  37.345  0.00  0.00    +0.342 C 
ATOM     38  NH2 ARG A   7      -8.636  -8.783  37.983  0.00  0.00    -0.292 N 
ATOM     39 HH21 ARG A   7      -8.921  -8.554  38.956  0.00  0.00    +0.255 HD
ATOM     40 HH22 ARG A   7      -7.901  -8.219  37.510  0.00  0.00    +0.255 HD
ATOM     41  NH1 ARG A   7      -8.842 -10.074  36.091  0.00  0.00    -0.292 N 
ATOM     42 HH11 ARG A   7      -8.106  -9.505  35.625  0.00  0.00    +0.255 HD
ATOM     43 HH12 ARG A   7      -9.292 -10.861  35.581  0.00  0.00    +0.255 HD
ENDBRANCH  34  35
ENDBRANCH  33  34
ENDBRANCH  32  33
ENDBRANCH   6  32
ENDBRANCH   4   6
ENDBRANCH   1   2
BRANCH   1  46
ATOM     44  C   GLY A   5     -12.968 -16.782  40.790  0.00  0.00    +0.243 C 
ATOM     45  O   GLY A   5     -12.692 -17.699  41.543  0.00  0.00    -0.273 OA
ATOM     46  N   HIS A   6     -12.239 -15.662  40.728  0.00  0.00    -0.297 N 
ATOM     47  H   HIS A   6     -12.560 -14.879  40.123  0.00  0.00    +0.150 HD
BRANCH  44  48
ATOM     48  CA  GLY A   5     -14.198 -16.889  39.900  0.00  0.00    +0.176 C 
BRANCH  48  50
ATOM     49  C   ASP A   4     -13.921 -15.580  37.869  0.00  0.00    +0.241 C 
ATOM     50  N   GLY A   5     -14.430 -15.706  39.089  0.00  0.00    -0.295 N 
ATOM     51  H   GLY A   5     -15.012 -14.935  39.475  0.00  0.00    +0.150 HD
ATOM     52  O   ASP A   4     -13.290 -16.473  37.313  0.00  0.00    -0.273 OA
BRANCH  49  53
ATOM     53  CA  ASP A   4     -14.143 -14.261  37.161  0.00  0.00    +0.160 C 
BRANCH  53  55
ATOM     54  C   THR A   3     -15.876 -12.862  38.130  0.00  0.00    +0.243 C 
ATOM     55  N   ASP A   4     -14.606 -13.252  38.082  0.00  0.00    -0.296 N 
ATOM     56  H   ASP A   4     -13.922 -12.814  38.732  0.00  0.00    +0.150 HD
ATOM     57  O   THR A   3     -16.747 -13.237  37.326  0.00  0.00    -0.273 OA
BRANCH  54  58
ATOM     58  CA  THR A   3     -16.189 -11.866  39.243  0.00  0.00    +0.176 C 
BRANCH  58  61
ATOM     59  C   ALA A   2     -17.364  -9.757  39.301  0.00  0.00    +0.241 C 
ATOM     60  O   ALA A   2     -16.643  -9.309  40.213  0.00  0.00    -0.273 OA
ATOM     61  N   THR A   3     -17.269 -10.995  38.846  0.00  0.00    -0.295 N 
ATOM     62  H   THR A   3     -17.990 -11.350  38.186  0.00  0.00    +0.150 HD
BRANCH  59  63
ATOM     63  CA  ALA A   2     -18.455  -8.920  38.655  0.00  0.00    +0.149 C 
ATOM     64  CB  ALA A   2     -17.881  -8.052  37.546  0.00  0.00    +0.031 C 
BRANCH  63  66
ATOM     65  C   VAL A   1     -20.433  -7.907  39.621  0.00  0.00    +0.238 C 
ATOM     66  N   ALA A   2     -19.122  -8.110  39.654  0.00  0.00    -0.297 N 
ATOM     67  H   ALA A   2     -18.560  -7.677  40.415  0.00  0.00    +0.150 HD
ATOM     68  O   VAL A   1     -21.161  -8.316  38.715  0.00  0.00    -0.274 OA
BRANCH  65  69
ATOM     69  CA  VAL A   1     -21.016  -7.105  40.764  0.00  0.00    +0.145 C 
BRANCH  69  70
ATOM     70  CB  VAL A   1     -21.650  -8.070  41.780  0.00  0.00    +0.025 C 
ATOM     71  CG2 VAL A   1     -22.482  -7.324  42.813  0.00  0.00    +0.002 C 
ATOM     72  CG1 VAL A   1     -20.572  -8.896  42.461  0.00  0.00    +0.002 C 
ENDBRANCH  69  70
BRANCH  69  73
ATOM     73  N   VAL A   1     -21.975  -6.170  40.220  0.00  0.00    -0.238 NA
ATOM     74  H   VAL A   1     -22.608  -6.487  39.458  0.00  0.00    +0.142 HD
ENDBRANCH  69  73
ENDBRANCH  65  69
ENDBRANCH  63  66
ENDBRANCH  59  63
ENDBRANCH  58  61
BRANCH  58  75
ATOM     75  CB  THR A   3     -16.498 -12.610  40.562  0.00  0.00    +0.137 C 
ATOM     76  CG2 THR A   3     -17.759 -13.447  40.443  0.00  0.00    +0.034 C 
BRANCH  75  77
ATOM     77  OG1 THR A   3     -15.402 -13.473  40.899  0.00  0.00    -0.382 OA
ATOM     78  HG1 THR A   3     -14.580 -12.932  41.011  0.00  0.00    +0.210 HD
ENDBRANCH  75  77
ENDBRANCH  58  75
ENDBRANCH  54  58
ENDBRANCH  53  55
BRANCH  53  79
ATOM     79  CB  ASP A   4     -12.858 -13.801  36.472  0.00  0.00    +0.143 C 
BRANCH  79  80
ATOM     80  CG  ASP A   4     -11.738 -13.493  37.451  0.00  0.00    +0.367 C 
ATOM     81  OD2 ASP A   4     -11.930 -13.643  38.681  0.00  0.00    -0.246 OA
ATOM     82  OD1 ASP A   4     -10.655 -13.105  36.977  0.00  0.00    -0.246 OA
ENDBRANCH  79  80
ENDBRANCH  53  79
ENDBRANCH  49  53
ENDBRANCH  48  50
ENDBRANCH  44  48
ENDBRANCH   1  46
BRANCH   1  83
ATOM     83  CB  HIS A   6      -9.781 -15.682  40.586  0.00  0.00    +0.076 C 
BRANCH  83  84
ATOM     84  CG  HIS A   6      -9.779 -16.992  39.872  0.00  0.00    +0.082 A 
ATOM     85  ND1 HIS A   6      -9.633 -18.188  40.534  0.00  0.00    -0.227 NA
ATOM     86  CE1 HIS A   6      -9.724 -19.184  39.669  0.00  0.00    +0.199 A 
ATOM     87  NE2 HIS A   6      -9.938 -18.671  38.472  0.00  0.00    -0.221 NA
ATOM     88  CD2 HIS A   6      -9.990 -17.302  38.575  0.00  0.00    +0.115 A 
ENDBRANCH  83  84
ENDBRANCH   1  83
TORSDOF 34
REMARK  Name = ../refined-set-2016/4mjp/4mjp_pocket.pdb
REMARK  103 active torsions:
REMARK  status: ('A' for Active; 'I' for Inactive)
REMARK    1  A    between atoms: _1  and  _3
REMARK    2  A    between atoms: _3  and  _4
REMARK    3  A    between atoms: _3  and  _6
REMARK    4  A    between atoms: _6  and  _7
REMARK    5  A    between atoms: _10  and  _12
REMARK    6  A    between atoms: _12  and  _13
REMARK    7  A    between atoms: _12  and  _15
REMARK    8  A    between atoms: _15  and  _16
REMARK    9  A    between atoms: _16  and  _17
REMARK   10  A    between atoms: _17  and  _18
REMARK   11  A    between atoms: _27  and  _29
REMARK   12  A    between atoms: _29  and  _30
REMARK   13  A    between atoms: _29  and  _32
REMARK   14  A    between atoms: _32  and  _33
REMARK   15  A    between atoms: _38  and  _39
REMARK   16  A    between atoms: _41  and  _43
REMARK   17  A    between atoms: _43  and  _44
REMARK   18  A    between atoms: _43  and  _46
REMARK   19  A    between atoms: _46  and  _47
REMARK   20  A    between atoms: _50  and  _52
REMARK   21  A    between atoms: _52  and  _53
REMARK   22  A    between atoms: _52  and  _55
REMARK   23  A    between atoms: _58  and  _60
REMARK   24  A    between atoms: _60  and  _61
REMARK   25  A    between atoms: _64  and  _66
REMARK   26  A    between atoms: _66  and  _67
REMARK   27  A    between atoms: _66  and  _69
REMARK   28  A    between atoms: _69  and  _70
REMARK   29  A    between atoms: _73  and  _75
REMARK   30  A    between atoms: _75  and  _76
REMARK   31  A    between atoms: _75  and  _78
REMARK   32  A    between atoms: _78  and  _79
REMARK   33  A    between atoms: _82  and  _84
REMARK   34  A    between atoms: _84  and  _85
REMARK   35  A    between atoms: _87  and  _89
REMARK   36  A    between atoms: _89  and  _90
REMARK   37  A    between atoms: _89  and  _92
REMARK   38  A    between atoms: _92  and  _93
REMARK   39  A    between atoms: _98  and  _100
REMARK   40  A    between atoms: _100  and  _101
REMARK   41  A    between atoms: _100  and  _103
REMARK   42  A    between atoms: _103  and  _104
REMARK   43  A    between atoms: _104  and  _105
REMARK   44  A    between atoms: _105  and  _106
REMARK   45  A    between atoms: _115  and  _117
REMARK   46  A    between atoms: _117  and  _118
REMARK   47  A    between atoms: _117  and  _120
REMARK   48  A    between atoms: _120  and  _121
REMARK   49  A    between atoms: _124  and  _126
REMARK   50  A    between atoms: _126  and  _127
REMARK   51  A    between atoms: _130  and  _132
REMARK   52  A    between atoms: _132  and  _133
REMARK   53  A    between atoms: _132  and  _135
REMARK   54  A    between atoms: _138  and  _140
REMARK   55  A    between atoms: _140  and  _141
REMARK   56  A    between atoms: _140  and  _143
REMARK   57  A    between atoms: _143  and  _144
REMARK   58  A    between atoms: _144  and  _145
REMARK   59  A    between atoms: _145  and  _146
REMARK   60  A    between atoms: _155  and  _157
REMARK   61  A    between atoms: _157  and  _158
REMARK   62  A    between atoms: _157  and  _160
REMARK   63  A    between atoms: _160  and  _161
REMARK   64  A    between atoms: _168  and  _169
REMARK   65  A    between atoms: _174  and  _176
REMARK   66  A    between atoms: _176  and  _177
REMARK   67  A    between atoms: _176  and  _179
REMARK   68  A    between atoms: _179  and  _180
REMARK   69  A    between atoms: _183  and  _185
REMARK   70  A    between atoms: _185  and  _186
REMARK   71  A    between atoms: _185  and  _188
REMARK   72  A    between atoms: _188  and  _189
REMARK   73  A    between atoms: _194  and  _195
REMARK   74  A    between atoms: _197  and  _199
REMARK   75  A    between atoms: _199  and  _200
REMARK   76  A    between atoms: _199  and  _202
REMARK   77  A    between atoms: _202  and  _203
REMARK   78  A    between atoms: _203  and  _204
REMARK   79  A    between atoms: _204  and  _205
REMARK   80  A    between atoms: _214  and  _216
REMARK   81  A    between atoms: _216  and  _217
REMARK   82  A    between atoms: _216  and  _219
REMARK   83  A    between atoms: _219  and  _220
REMARK   84  A    between atoms: _220  and  _221
REMARK   85  A    between atoms: _221  and  _222
REMARK   86  A    between atoms: _231  and  _233
REMARK   87  A    between atoms: _233  and  _234
REMARK   88  A    between atoms: _233  and  _236
REMARK   89  A    between atoms: _239  and  _241
REMARK   90  A    between atoms: _241  and  _242
REMARK   91  A    between atoms: _241  and  _244
REMARK   92  A    between atoms: _244  and  _245
REMARK   93  A    between atoms: _248  and  _250
REMARK   94  A    between atoms: _250  and  _251
REMARK   95  A    between atoms: _250  and  _253
REMARK   96  A    between atoms: _256  and  _258
REMARK   97  A    between atoms: _258  and  _259
REMARK   98  A    between atoms: _258  and  _261
REMARK   99  A    between atoms: _264  and  _266
REMARK  100  A    between atoms: _266  and  _267
REMARK  101  A    between atoms: _266  and  _269
REMARK  102  A    between atoms: _269  and  _270
REMARK  103  A    between atoms: _270  and  _271
REMARK                            x       y       z     vdW  Elec       q    Type
REMARK                         _______ _______ _______ _____ _____    ______ ____
ROOT
ATOM      1  CA  TYR A   5     -20.348 -13.341  46.385  0.00  0.00    +0.153 C 
ENDROOT
BRANCH   1   4
ATOM      2  C   ASP A   4     -21.852 -15.207  46.944  0.00  0.00    +0.241 C 
ATOM      3  O   ASP A   4     -21.155 -15.608  47.881  0.00  0.00    -0.273 OA
ATOM      4  N   TYR A   5     -21.577 -14.116  46.234  0.00  0.00    -0.297 N 
ATOM      5  H   TYR A   5     -22.276 -13.797  45.533  0.00  0.00    +0.150 HD
BRANCH   2   6
ATOM      6  CA  ASP A   4     -23.134 -15.940  46.525  0.00  0.00    +0.160 C 
BRANCH   6   8
ATOM      7  C   PRO A   3     -22.791 -16.042  44.122  0.00  0.00    +0.241 C 
ATOM      8  N   ASP A   4     -22.858 -16.667  45.290  0.00  0.00    -0.297 N 
ATOM      9  H   ASP A   4     -22.711 -17.696  45.326  0.00  0.00    +0.150 HD
ATOM     10  O   PRO A   3     -23.027 -14.840  43.996  0.00  0.00    -0.273 OA
BRANCH   7  14
ATOM     11  C   PHE A   2     -24.296 -16.235  41.524  0.00  0.00    +0.244 C 
ATOM     12  O   PHE A   2     -25.074 -16.513  42.431  0.00  0.00    -0.273 OA
ATOM     13  N   PRO A   3     -22.963 -16.389  41.645  0.00  0.00    -0.272 N 
ATOM     14  CA  PRO A   3     -22.427 -16.897  42.910  0.00  0.00    +0.152 C 
ATOM     15  CB  PRO A   3     -20.911 -16.885  42.685  0.00  0.00    +0.031 C 
ATOM     16  CG  PRO A   3     -20.685 -15.987  41.521  0.00  0.00    +0.024 C 
ATOM     17  CD  PRO A   3     -21.894 -16.154  40.662  0.00  0.00    +0.094 C 
BRANCH  11  18
ATOM     18  CA  PHE A   2     -24.835 -15.680  40.204  0.00  0.00    +0.153 C 
BRANCH  18  20
ATOM     19  C   ARG A   1     -26.197 -17.521  39.391  0.00  0.00    +0.238 C 
ATOM     20  N   PHE A   2     -26.128 -16.292  39.894  0.00  0.00    -0.297 N 
ATOM     21  H   PHE A   2     -27.004 -15.759  40.069  0.00  0.00    +0.150 HD
ATOM     22  O   ARG A   1     -25.201 -18.175  39.118  0.00  0.00    -0.274 OA
BRANCH  19  23
ATOM     23  CA  ARG A   1     -27.581 -18.131  39.186  0.00  0.00    +0.145 C 
BRANCH  23  24
ATOM     24  N   ARG A   1     -27.661 -18.626  37.820  0.00  0.00    -0.238 NA
ATOM     25  H   ARG A   1     -27.200 -19.528  37.586  0.00  0.00    +0.142 HD
ENDBRANCH  23  24
BRANCH  23  26
ATOM     26  CB  ARG A   1     -27.772 -19.286  40.168  0.00  0.00    +0.030 C 
BRANCH  26  27
ATOM     27  CG  ARG A   1     -27.471 -18.922  41.609  0.00  0.00    +0.045 C 
BRANCH  27  28
ATOM     28  CD  ARG A   1     -27.441 -20.149  42.507  0.00  0.00    +0.174 C 
BRANCH  28  29
ATOM     29  NE  ARG A   1     -26.940 -19.811  43.840  0.00  0.00    -0.265 N 
ATOM     30  HE  ARG A   1     -27.643 -19.638  44.587  0.00  0.00    +0.259 HD
ATOM     31  CZ  ARG A   1     -25.652 -19.708  44.172  0.00  0.00    +0.342 C 
ATOM     32  NH2 ARG A   1     -25.320 -19.400  45.418  0.00  0.00    -0.292 N 
ATOM     33 HH21 ARG A   1     -26.062 -19.240  46.129  0.00  0.00    +0.255 HD
ATOM     34 HH22 ARG A   1     -24.318 -19.318  45.684  0.00  0.00    +0.255 HD
ATOM     35  NH1 ARG A   1     -24.692 -19.908  43.271  0.00  0.00    -0.292 N 
ATOM     36 HH11 ARG A   1     -23.693 -19.823  43.548  0.00  0.00    +0.255 HD
ATOM     37 HH12 ARG A   1     -24.941 -20.149  42.290  0.00  0.00    +0.255 HD
ENDBRANCH  28  29
ENDBRANCH  27  28
ENDBRANCH  26  27
ENDBRANCH  23  26
ENDBRANCH  19  23
ENDBRANCH  18  20
BRANCH  18  38
ATOM     38  CB  PHE A   2     -24.978 -14.166  40.312  0.00  0.00    +0.055 C 
BRANCH  38  39
ATOM     39  CG  PHE A   2     -23.694 -13.418  40.088  0.00  0.00    -0.020 A 
ATOM     40  CD2 PHE A   2     -23.020 -12.836  41.144  0.00  0.00    -0.004 A 
ATOM     41  CE2 PHE A   2     -21.837 -12.139  40.932  0.00  0.00    -0.000 A 
ATOM     42  CZ  PHE A   2     -21.335 -11.998  39.656  0.00  0.00    -0.000 A 
ATOM     43  CE1 PHE A   2     -22.003 -12.567  38.589  0.00  0.00    -0.000 A 
ATOM     44  CD1 PHE A   2     -23.176 -13.275  38.806  0.00  0.00    -0.004 A 
ENDBRANCH  38  39
ENDBRANCH  18  38
ENDBRANCH  11  18
ENDBRANCH   7  14
ENDBRANCH   6   8
BRANCH   6  45
ATOM     45  CB  ASP A   4     -23.615 -16.904  47.610  0.00  0.00    +0.143 C 
BRANCH  45  46
ATOM     46  CG  ASP A   4     -24.070 -16.196  48.873  0.00  0.00    +0.367 C 
ATOM     47  OD2 ASP A   4     -24.220 -16.892  49.890  0.00  0.00    -0.246 OA
ATOM     48  OD1 ASP A   4     -24.287 -14.962  48.859  0.00  0.00    -0.246 OA
ENDBRANCH  45  46
ENDBRANCH   6  45
ENDBRANCH   2   6
ENDBRANCH   1   4
BRANCH   1  49
ATOM     49  C   TYR A   5     -20.183 -12.746  47.805  0.00  0.00    +0.241 C 
ATOM     50  N   ARG A   6     -21.288 -12.494  48.502  0.00  0.00    -0.297 N 
ATOM     51  H   ARG A   6     -22.216 -12.707  48.083  0.00  0.00    +0.150 HD
ATOM     52  O   TYR A   5     -19.065 -12.527  48.256  0.00  0.00    -0.273 OA
BRANCH  50  53
ATOM     53  CA  ARG A   6     -21.222 -11.917  49.860  0.00  0.00    +0.149 C 
BRANCH  53  54
ATOM     54  C   ARG A   6     -20.384 -12.744  50.831  0.00  0.00    +0.241 C 
ATOM     55  O   ARG A   6     -19.784 -12.200  51.757  0.00  0.00    -0.273 OA
ATOM     56  N   ARG A   7     -20.314 -14.049  50.593  0.00  0.00    -0.297 N 
ATOM     57  H   ARG A   7     -20.844 -14.443  49.790  0.00  0.00    +0.150 HD
BRANCH  56  58
ATOM     58  CA  ARG A   7     -19.517 -14.948  51.422  0.00  0.00    +0.149 C 
BRANCH  58  59
ATOM     59  C   ARG A   7     -18.019 -14.649  51.445  0.00  0.00    +0.241 C 
ATOM     60  O   ARG A   7     -17.354 -14.995  52.415  0.00  0.00    -0.273 OA
ATOM     61  N   VAL A   8     -17.478 -14.006  50.404  0.00  0.00    -0.297 N 
ATOM     62  H   VAL A   8     -18.075 -13.742  49.594  0.00  0.00    +0.150 HD
BRANCH  61  63
ATOM     63  CA  VAL A   8     -16.053 -13.671  50.396  0.00  0.00    +0.149 C 
BRANCH  63  64
ATOM     64  C   VAL A   8     -15.744 -12.236  50.841  0.00  0.00    +0.241 C 
ATOM     65  O   VAL A   8     -14.589 -11.915  51.038  0.00  0.00    -0.273 OA
ATOM     66  N   LEU A   9     -16.752 -11.375  50.986  0.00  0.00    -0.298 N 
ATOM     67  H   LEU A   9     -17.709 -11.641  50.679  0.00  0.00    +0.150 HD
BRANCH  66  68
ATOM     68  CA  LEU A   9     -16.514 -10.051  51.579  0.00  0.00    +0.137 C 
BRANCH  68  69
ATOM     69  C   LEU A   9     -16.099 -10.250  53.036  0.00  0.00    +0.227 C 
ATOM     70  O   LEU A   9     -16.878 -10.797  53.823  0.00  0.00    -0.286 OA
ENDBRANCH  68  69
BRANCH  68  71
ATOM     71  CB  LEU A   9     -17.768  -9.184  51.530  0.00  0.00    +0.028 C 
BRANCH  71  72
ATOM     72  CG  LEU A   9     -18.237  -8.722  50.153  0.00  0.00    +0.002 C 
ATOM     73  CD2 LEU A   9     -19.669  -8.216  50.258  0.00  0.00    +0.000 C 
ATOM     74  CD1 LEU A   9     -17.337  -7.637  49.586  0.00  0.00    +0.000 C 
ENDBRANCH  71  72
ENDBRANCH  68  71
ENDBRANCH  66  68
ENDBRANCH  63  64
BRANCH  63  75
ATOM     75  CB  VAL A   8     -15.378 -13.949  49.034  0.00  0.00    +0.027 C 
ATOM     76  CG2 VAL A   8     -15.770 -15.330  48.526  0.00  0.00    +0.002 C 
ATOM     77  CG1 VAL A   8     -15.703 -12.865  48.010  0.00  0.00    +0.002 C 
ENDBRANCH  63  75
ENDBRANCH  61  63
ENDBRANCH  58  59
BRANCH  58  78
ATOM     78  CB  ARG A   7     -19.750 -16.401  50.986  0.00  0.00    +0.033 C 
BRANCH  78  79
ATOM     79  CG  ARG A   7     -21.162 -16.885  51.278  0.00  0.00    +0.045 C 
BRANCH  79  80
ATOM     80  CD  ARG A   7     -21.549 -18.101  50.454  0.00  0.00    +0.174 C 
BRANCH  80  81
ATOM     81  NE  ARG A   7     -20.658 -19.244  50.642  0.00  0.00    -0.265 N 
ATOM     82  HE  ARG A   7     -19.705 -19.061  51.016  0.00  0.00    +0.259 HD
ATOM     83  CZ  ARG A   7     -20.987 -20.506  50.365  0.00  0.00    +0.342 C 
ATOM     84  NH2 ARG A   7     -20.103 -21.474  50.568  0.00  0.00    -0.292 N 
ATOM     85 HH21 ARG A   7     -19.159 -21.247  50.941  0.00  0.00    +0.255 HD
ATOM     86 HH22 ARG A   7     -20.354 -22.460  50.354  0.00  0.00    +0.255 HD
ATOM     87  NH1 ARG A   7     -22.196 -20.810  49.889  0.00  0.00    -0.292 N 
ATOM     88 HH11 ARG A   7     -22.896 -20.058  49.729  0.00  0.00    +0.255 HD
ATOM     89 HH12 ARG A   7     -22.438 -21.799  49.678  0.00  0.00    +0.255 HD
ENDBRANCH  80  81
ENDBRANCH  79  80
ENDBRANCH  78  79
ENDBRANCH  58  78
ENDBRANCH  56  58
ENDBRANCH  53  54
BRANCH  53  90
ATOM     90  CB  ARG A   6     -22.619 -11.710  50.437  0.00  0.00    +0.033 C 
BRANCH  90  91
ATOM     91  CG  ARG A   6     -23.366 -10.557  49.801  0.00  0.00    +0.045 C 
BRANCH  91  92
ATOM     92  CD  ARG A   6     -24.789 -10.521  50.304  0.00  0.00    +0.174 C 
BRANCH  92  93
ATOM     93  NE  ARG A   6     -25.516  -9.341  49.841  0.00  0.00    -0.265 N 
ATOM     94  HE  ARG A   6     -25.594  -8.537  50.497  0.00  0.00    +0.259 HD
ATOM     95  CZ  ARG A   6     -26.088  -9.215  48.642  0.00  0.00    +0.342 C 
ATOM     96  NH2 ARG A   6     -26.743  -8.100  48.343  0.00  0.00    -0.292 N 
ATOM     97 HH21 ARG A   6     -26.808  -7.332  49.041  0.00  0.00    +0.255 HD
ATOM     98 HH22 ARG A   6     -27.191  -7.994  47.411  0.00  0.00    +0.255 HD
ATOM     99  NH1 ARG A   6     -26.006 -10.184  47.743  0.00  0.00    -0.292 N 
ATOM    100 HH11 ARG A   6     -25.490 -11.059  47.967  0.00  0.00    +0.255 HD
ATOM    101 HH12 ARG A   6     -26.457 -10.070  46.813  0.00  0.00    +0.255 HD
ENDBRANCH  92  93
ENDBRANCH  91  92
ENDBRANCH  90  91
ENDBRANCH  53  90
ENDBRANCH  50  53
ENDBRANCH   1  49
BRANCH   1 102
ATOM    102  CB  TYR A   5     -20.305 -12.220  45.323  0.00  0.00    +0.055 C 
BRANCH 102 103
ATOM    103  CG  TYR A   5     -21.279 -11.088  45.582  0.00  0.00    -0.020 A 
ATOM    104  CD2 TYR A   5     -20.895  -9.987  46.339  0.00  0.00    -0.001 A 
ATOM    105  CE2 TYR A   5     -21.773  -8.953  46.598  0.00  0.00    +0.036 A 
ATOM    106  CZ  TYR A   5     -23.060  -9.008  46.089  0.00  0.00    +0.134 A 
ATOM    107  CE1 TYR A   5     -23.478 -10.099  45.336  0.00  0.00    +0.036 A 
ATOM    108  CD1 TYR A   5     -22.589 -11.125  45.079  0.00  0.00    -0.001 A 
BRANCH 106 109
ATOM    109  OH  TYR A   5     -23.924  -7.975  46.356  0.00  0.00    -0.506 OA
ATOM    110  HH  TYR A   5     -23.460  -7.290  46.900  0.00  0.00    +0.292 HD
ENDBRANCH 106 109
ENDBRANCH 102 103
ENDBRANCH   1 102
TORSDOF 39
REMARK  Name = ../refined-set-2016/4mjp/4mjp_pocket.pdb
REMARK  103 active torsions:
REMARK  status: ('A' for Active; 'I' for Inactive)
REMARK    1  A    between atoms: _1  and  _3
REMARK    2  A    between atoms: _3  and  _4
REMARK    3  A    between atoms: _3  and  _6
REMARK    4  A    between atoms: _6  and  _7
REMARK    5  A    between atoms: _10  and  _12
REMARK    6  A    between atoms: _12  and  _13
REMARK    7  A    between atoms: _12  and  _15
REMARK    8  A    between atoms: _15  and  _16
REMARK    9  A    between atoms: _16  and  _17
REMARK   10  A    between atoms: _17  and  _18
REMARK   11  A    between atoms: _27  and  _29
REMARK   12  A    between atoms: _29  and  _30
REMARK   13  A    between atoms: _29  and  _32
REMARK   14  A    between atoms: _32  and  _33
REMARK   15  A    between atoms: _38  and  _39
REMARK   16  A    between atoms: _41  and  _43
REMARK   17  A    between atoms: _43  and  _44
REMARK   18  A    between atoms: _43  and  _46
REMARK   19  A    between atoms: _46  and  _47
REMARK   20  A    between atoms: _50  and  _52
REMARK   21  A    between atoms: _52  and  _53
REMARK   22  A    between atoms: _52  and  _55
REMARK   23  A    between atoms: _58  and  _60
REMARK   24  A    between atoms: _60  and  _61
REMARK   25  A    between atoms: _64  and  _66
REMARK   26  A    between atoms: _66  and  _67
REMARK   27  A    between atoms: _66  and  _69
REMARK   28  A    between atoms: _69  and  _70
REMARK   29  A    between atoms: _73  and  _75
REMARK   30  A    between atoms: _75  and  _76
REMARK   31  A    between atoms: _75  and  _78
REMARK   32  A    between atoms: _78  and  _79
REMARK   33  A    between atoms: _82  and  _84
REMARK   34  A    between atoms: _84  and  _85
REMARK   35  A    between atoms: _87  and  _89
REMARK   36  A    between atoms: _89  and  _90
REMARK   37  A    between atoms: _89  and  _92
REMARK   38  A    between atoms: _92  and  _93
REMARK   39  A    between atoms: _98  and  _100
REMARK   40  A    between atoms: _100  and  _101
REMARK   41  A    between atoms: _100  and  _103
REMARK   42  A    between atoms: _103  and  _104
REMARK   43  A    between atoms: _104  and  _105
REMARK   44  A    between atoms: _105  and  _106
REMARK   45  A    between atoms: _115  and  _117
REMARK   46  A    between atoms: _117  and  _118
REMARK   47  A    between atoms: _117  and  _120
REMARK   48  A    between atoms: _120  and  _121
REMARK   49  A    between atoms: _124  and  _126
REMARK   50  A    between atoms: _126  and  _127
REMARK   51  A    between atoms: _130  and  _132
REMARK   52  A    between atoms: _132  and  _133
REMARK   53  A    between atoms: _132  and  _135
REMARK   54  A    between atoms: _138  and  _140
REMARK   55  A    between atoms: _140  and  _141
REMARK   56  A    between atoms: _140  and  _143
REMARK   57  A    between atoms: _143  and  _144
REMARK   58  A    between atoms: _144  and  _145
REMARK   59  A    between atoms: _145  and  _146
REMARK   60  A    between atoms: _155  and  _157
REMARK   61  A    between atoms: _157  and  _158
REMARK   62  A    between atoms: _157  and  _160
REMARK   63  A    between atoms: _160  and  _161
REMARK   64  A    between atoms: _168  and  _169
REMARK   65  A    between atoms: _174  and  _176
REMARK   66  A    between atoms: _176  and  _177
REMARK   67  A    between atoms: _176  and  _179
REMARK   68  A    between atoms: _179  and  _180
REMARK   69  A    between atoms: _183  and  _185
REMARK   70  A    between atoms: _185  and  _186
REMARK   71  A    between atoms: _185  and  _188
REMARK   72  A    between atoms: _188  and  _189
REMARK   73  A    between atoms: _194  and  _195
REMARK   74  A    between atoms: _197  and  _199
REMARK   75  A    between atoms: _199  and  _200
REMARK   76  A    between atoms: _199  and  _202
REMARK   77  A    between atoms: _202  and  _203
REMARK   78  A    between atoms: _203  and  _204
REMARK   79  A    between atoms: _204  and  _205
REMARK   80  A    between atoms: _214  and  _216
REMARK   81  A    between atoms: _216  and  _217
REMARK   82  A    between atoms: _216  and  _219
REMARK   83  A    between atoms: _219  and  _220
REMARK   84  A    between atoms: _220  and  _221
REMARK   85  A    between atoms: _221  and  _222
REMARK   86  A    between atoms: _231  and  _233
REMARK   87  A    between atoms: _233  and  _234
REMARK   88  A    between atoms: _233  and  _236
REMARK   89  A    between atoms: _239  and  _241
REMARK   90  A    between atoms: _241  and  _242
REMARK   91  A    between atoms: _241  and  _244
REMARK   92  A    between atoms: _244  and  _245
REMARK   93  A    between atoms: _248  and  _250
REMARK   94  A    between atoms: _250  and  _251
REMARK   95  A    between atoms: _250  and  _253
REMARK   96  A    between atoms: _256  and  _258
REMARK   97  A    between atoms: _258  and  _259
REMARK   98  A    between atoms: _258  and  _261
REMARK   99  A    between atoms: _264  and  _266
REMARK  100  A    between atoms: _266  and  _267
REMARK  101  A    between atoms: _266  and  _269
REMARK  102  A    between atoms: _269  and  _270
REMARK  103  A    between atoms: _270  and  _271
REMARK                            x       y       z     vdW  Elec       q    Type
REMARK                         _______ _______ _______ _____ _____    ______ ____
ROOT
ATOM      1  CA  VAL A   2      -8.585 -10.346  46.310  0.00  0.00    +0.148 C 
ENDROOT
BRANCH   1   3
ATOM      2  C   VAL A   1     -10.777  -9.282  46.283  0.00  0.00    +0.238 C 
ATOM      3  N   VAL A   2      -9.582  -9.458  46.846  0.00  0.00    -0.297 N 
ATOM      4  H   VAL A   2      -9.360  -8.929  47.713  0.00  0.00    +0.150 HD
ATOM      5  O   VAL A   1     -11.097  -9.770  45.185  0.00  0.00    -0.274 OA
BRANCH   2   6
ATOM      6  CA  VAL A   1     -11.737  -8.372  47.060  0.00  0.00    +0.145 C 
BRANCH   6   7
ATOM      7  CB  VAL A   1     -12.862  -9.197  47.694  0.00  0.00    +0.025 C 
ATOM      8  CG2 VAL A   1     -12.280 -10.328  48.536  0.00  0.00    +0.002 C 
ATOM      9  CG1 VAL A   1     -13.778  -8.307  48.523  0.00  0.00    +0.002 C 
ENDBRANCH   6   7
BRANCH   6  10
ATOM     10  N   VAL A   1     -12.256  -7.311  46.205  0.00  0.00    -0.238 NA
ATOM     11  H   VAL A   1     -12.786  -7.568  45.348  0.00  0.00    +0.142 HD
ENDBRANCH   6  10
ENDBRANCH   2   6
ENDBRANCH   1   3
BRANCH   1  12
ATOM     12  C   VAL A   2      -8.258 -11.415  47.361  0.00  0.00    +0.241 C 
ATOM     13  O   VAL A   2      -8.206 -11.126  48.561  0.00  0.00    -0.273 OA
ATOM     14  N   MET A   3      -8.060 -12.647  46.893  0.00  0.00    -0.298 N 
ATOM     15  H   MET A   3      -8.089 -12.800  45.865  0.00  0.00    +0.150 HD
BRANCH  14  16
ATOM     16  CA  MET A   3      -7.803 -13.798  47.769  0.00  0.00    +0.138 C 
BRANCH  16  17
ATOM     17  C   MET A   3      -6.372 -13.821  48.283  0.00  0.00    +0.227 C 
ATOM     18  O   MET A   3      -5.469 -13.281  47.645  0.00  0.00    -0.286 OA
ENDBRANCH  16  17
BRANCH  16  19
ATOM     19  CB  MET A   3      -8.024 -15.108  47.000  0.00  0.00    +0.039 C 
BRANCH  19  20
ATOM     20  CG  MET A   3      -9.418 -15.316  46.454  0.00  0.00    +0.060 C 
BRANCH  20  21
ATOM     21  SD  MET A   3     -10.572 -15.601  47.790  0.00  0.00    -0.139 S 
ATOM     22  CE  MET A   3     -11.286 -13.970  47.915  0.00  0.00    +0.069 C 
ENDBRANCH  20  21
ENDBRANCH  19  20
ENDBRANCH  16  19
ENDBRANCH  14  16
ENDBRANCH   1  12
BRANCH   1  23
ATOM     23  CB  VAL A   2      -7.330  -9.559  45.897  0.00  0.00    +0.027 C 
ATOM     24  CG2 VAL A   2      -6.245 -10.487  45.422  0.00  0.00    +0.002 C 
ATOM     25  CG1 VAL A   2      -7.674  -8.567  44.787  0.00  0.00    +0.002 C 
ENDBRANCH   1  23
TORSDOF 11
REMARK  Name = ../refined-set-2016/4mjp/4mjp_pocket.pdb
REMARK  103 active torsions:
REMARK  status: ('A' for Active; 'I' for Inactive)
REMARK    1  A    between atoms: _1  and  _3
REMARK    2  A    between atoms: _3  and  _4
REMARK    3  A    between atoms: _3  and  _6
REMARK    4  A    between atoms: _6  and  _7
REMARK    5  A    between atoms: _10  and  _12
REMARK    6  A    between atoms: _12  and  _13
REMARK    7  A    between atoms: _12  and  _15
REMARK    8  A    between atoms: _15  and  _16
REMARK    9  A    between atoms: _16  and  _17
REMARK   10  A    between atoms: _17  and  _18
REMARK   11  A    between atoms: _27  and  _29
REMARK   12  A    between atoms: _29  and  _30
REMARK   13  A    between atoms: _29  and  _32
REMARK   14  A    between atoms: _32  and  _33
REMARK   15  A    between atoms: _38  and  _39
REMARK   16  A    between atoms: _41  and  _43
REMARK   17  A    between atoms: _43  and  _44
REMARK   18  A    between atoms: _43  and  _46
REMARK   19  A    between atoms: _46  and  _47
REMARK   20  A    between atoms: _50  and  _52
REMARK   21  A    between atoms: _52  and  _53
REMARK   22  A    between atoms: _52  and  _55
REMARK   23  A    between atoms: _58  and  _60
REMARK   24  A    between atoms: _60  and  _61
REMARK   25  A    between atoms: _64  and  _66
REMARK   26  A    between atoms: _66  and  _67
REMARK   27  A    between atoms: _66  and  _69
REMARK   28  A    between atoms: _69  and  _70
REMARK   29  A    between atoms: _73  and  _75
REMARK   30  A    between atoms: _75  and  _76
REMARK   31  A    between atoms: _75  and  _78
REMARK   32  A    between atoms: _78  and  _79
REMARK   33  A    between atoms: _82  and  _84
REMARK   34  A    between atoms: _84  and  _85
REMARK   35  A    between atoms: _87  and  _89
REMARK   36  A    between atoms: _89  and  _90
REMARK   37  A    between atoms: _89  and  _92
REMARK   38  A    between atoms: _92  and  _93
REMARK   39  A    between atoms: _98  and  _100
REMARK   40  A    between atoms: _100  and  _101
REMARK   41  A    between atoms: _100  and  _103
REMARK   42  A    between atoms: _103  and  _104
REMARK   43  A    between atoms: _104  and  _105
REMARK   44  A    between atoms: _105  and  _106
REMARK   45  A    between atoms: _115  and  _117
REMARK   46  A    between atoms: _117  and  _118
REMARK   47  A    between atoms: _117  and  _120
REMARK   48  A    between atoms: _120  and  _121
REMARK   49  A    between atoms: _124  and  _126
REMARK   50  A    between atoms: _126  and  _127
REMARK   51  A    between atoms: _130  and  _132
REMARK   52  A    between atoms: _132  and  _133
REMARK   53  A    between atoms: _132  and  _135
REMARK   54  A    between atoms: _138  and  _140
REMARK   55  A    between atoms: _140  and  _141
REMARK   56  A    between atoms: _140  and  _143
REMARK   57  A    between atoms: _143  and  _144
REMARK   58  A    between atoms: _144  and  _145
REMARK   59  A    between atoms: _145  and  _146
REMARK   60  A    between atoms: _155  and  _157
REMARK   61  A    between atoms: _157  and  _158
REMARK   62  A    between atoms: _157  and  _160
REMARK   63  A    between atoms: _160  and  _161
REMARK   64  A    between atoms: _168  and  _169
REMARK   65  A    between atoms: _174  and  _176
REMARK   66  A    between atoms: _176  and  _177
REMARK   67  A    between atoms: _176  and  _179
REMARK   68  A    between atoms: _179  and  _180
REMARK   69  A    between atoms: _183  and  _185
REMARK   70  A    between atoms: _185  and  _186
REMARK   71  A    between atoms: _185  and  _188
REMARK   72  A    between atoms: _188  and  _189
REMARK   73  A    between atoms: _194  and  _195
REMARK   74  A    between atoms: _197  and  _199
REMARK   75  A    between atoms: _199  and  _200
REMARK   76  A    between atoms: _199  and  _202
REMARK   77  A    between atoms: _202  and  _203
REMARK   78  A    between atoms: _203  and  _204
REMARK   79  A    between atoms: _204  and  _205
REMARK   80  A    between atoms: _214  and  _216
REMARK   81  A    between atoms: _216  and  _217
REMARK   82  A    between atoms: _216  and  _219
REMARK   83  A    between atoms: _219  and  _220
REMARK   84  A    between atoms: _220  and  _221
REMARK   85  A    between atoms: _221  and  _222
REMARK   86  A    between atoms: _231  and  _233
REMARK   87  A    between atoms: _233  and  _234
REMARK   88  A    between atoms: _233  and  _236
REMARK   89  A    between atoms: _239  and  _241
REMARK   90  A    between atoms: _241  and  _242
REMARK   91  A    between atoms: _241  and  _244
REMARK   92  A    between atoms: _244  and  _245
REMARK   93  A    between atoms: _248  and  _250
REMARK   94  A    between atoms: _250  and  _251
REMARK   95  A    between atoms: _250  and  _253
REMARK   96  A    between atoms: _256  and  _258
REMARK   97  A    between atoms: _258  and  _259
REMARK   98  A    between atoms: _258  and  _261
REMARK   99  A    between atoms: _264  and  _266
REMARK  100  A    between atoms: _266  and  _267
REMARK  101  A    between atoms: _266  and  _269
REMARK  102  A    between atoms: _269  and  _270
REMARK  103  A    between atoms: _270  and  _271
REMARK                            x       y       z     vdW  Elec       q    Type
REMARK                         _______ _______ _______ _____ _____    ______ ____
ROOT
ATOM      1  O   HOH     1      -8.071 -13.160  44.172  0.00  0.00    +0.000 OA
ENDROOT
TORSDOF 0
REMARK  Name = ../refined-set-2016/4mjp/4mjp_pocket.pdb
REMARK  103 active torsions:
REMARK  status: ('A' for Active; 'I' for Inactive)
REMARK    1  A    between atoms: _1  and  _3
REMARK    2  A    between atoms: _3  and  _4
REMARK    3  A    between atoms: _3  and  _6
REMARK    4  A    between atoms: _6  and  _7
REMARK    5  A    between atoms: _10  and  _12
REMARK    6  A    between atoms: _12  and  _13
REMARK    7  A    between atoms: _12  and  _15
REMARK    8  A    between atoms: _15  and  _16
REMARK    9  A    between atoms: _16  and  _17
REMARK   10  A    between atoms: _17  and  _18
REMARK   11  A    between atoms: _27  and  _29
REMARK   12  A    between atoms: _29  and  _30
REMARK   13  A    between atoms: _29  and  _32
REMARK   14  A    between atoms: _32  and  _33
REMARK   15  A    between atoms: _38  and  _39
REMARK   16  A    between atoms: _41  and  _43
REMARK   17  A    between atoms: _43  and  _44
REMARK   18  A    between atoms: _43  and  _46
REMARK   19  A    between atoms: _46  and  _47
REMARK   20  A    between atoms: _50  and  _52
REMARK   21  A    between atoms: _52  and  _53
REMARK   22  A    between atoms: _52  and  _55
REMARK   23  A    between atoms: _58  and  _60
REMARK   24  A    between atoms: _60  and  _61
REMARK   25  A    between atoms: _64  and  _66
REMARK   26  A    between atoms: _66  and  _67
REMARK   27  A    between atoms: _66  and  _69
REMARK   28  A    between atoms: _69  and  _70
REMARK   29  A    between atoms: _73  and  _75
REMARK   30  A    between atoms: _75  and  _76
REMARK   31  A    between atoms: _75  and  _78
REMARK   32  A    between atoms: _78  and  _79
REMARK   33  A    between atoms: _82  and  _84
REMARK   34  A    between atoms: _84  and  _85
REMARK   35  A    between atoms: _87  and  _89
REMARK   36  A    between atoms: _89  and  _90
REMARK   37  A    between atoms: _89  and  _92
REMARK   38  A    between atoms: _92  and  _93
REMARK   39  A    between atoms: _98  and  _100
REMARK   40  A    between atoms: _100  and  _101
REMARK   41  A    between atoms: _100  and  _103
REMARK   42  A    between atoms: _103  and  _104
REMARK   43  A    between atoms: _104  and  _105
REMARK   44  A    between atoms: _105  and  _106
REMARK   45  A    between atoms: _115  and  _117
REMARK   46  A    between atoms: _117  and  _118
REMARK   47  A    between atoms: _117  and  _120
REMARK   48  A    between atoms: _120  and  _121
REMARK   49  A    between atoms: _124  and  _126
REMARK   50  A    between atoms: _126  and  _127
REMARK   51  A    between atoms: _130  and  _132
REMARK   52  A    between atoms: _132  and  _133
REMARK   53  A    between atoms: _132  and  _135
REMARK   54  A    between atoms: _138  and  _140
REMARK   55  A    between atoms: _140  and  _141
REMARK   56  A    between atoms: _140  and  _143
REMARK   57  A    between atoms: _143  and  _144
REMARK   58  A    between atoms: _144  and  _145
REMARK   59  A    between atoms: _145  and  _146
REMARK   60  A    between atoms: _155  and  _157
REMARK   61  A    between atoms: _157  and  _158
REMARK   62  A    between atoms: _157  and  _160
REMARK   63  A    between atoms: _160  and  _161
REMARK   64  A    between atoms: _168  and  _169
REMARK   65  A    between atoms: _174  and  _176
REMARK   66  A    between atoms: _176  and  _177
REMARK   67  A    between atoms: _176  and  _179
REMARK   68  A    between atoms: _179  and  _180
REMARK   69  A    between atoms: _183  and  _185
REMARK   70  A    between atoms: _185  and  _186
REMARK   71  A    between atoms: _185  and  _188
REMARK   72  A    between atoms: _188  and  _189
REMARK   73  A    between atoms: _194  and  _195
REMARK   74  A    between atoms: _197  and  _199
REMARK   75  A    between atoms: _199  and  _200
REMARK   76  A    between atoms: _199  and  _202
REMARK   77  A    between atoms: _202  and  _203
REMARK   78  A    between atoms: _203  and  _204
REMARK   79  A    between atoms: _204  and  _205
REMARK   80  A    between atoms: _214  and  _216
REMARK   81  A    between atoms: _216  and  _217
REMARK   82  A    between atoms: _216  and  _219
REMARK   83  A    between atoms: _219  and  _220
REMARK   84  A    between atoms: _220  and  _221
REMARK   85  A    between atoms: _221  and  _222
REMARK   86  A    between atoms: _231  and  _233
REMARK   87  A    between atoms: _233  and  _234
REMARK   88  A    between atoms: _233  and  _236
REMARK   89  A    between atoms: _239  and  _241
REMARK   90  A    between atoms: _241  and  _242
REMARK   91  A    between atoms: _241  and  _244
REMARK   92  A    between atoms: _244  and  _245
REMARK   93  A    between atoms: _248  and  _250
REMARK   94  A    between atoms: _250  and  _251
REMARK   95  A    between atoms: _250  and  _253
REMARK   96  A    between atoms: _256  and  _258
REMARK   97  A    between atoms: _258  and  _259
REMARK   98  A    between atoms: _258  and  _261
REMARK   99  A    between atoms: _264  and  _266
REMARK  100  A    between atoms: _266  and  _267
REMARK  101  A    between atoms: _266  and  _269
REMARK  102  A    between atoms: _269  and  _270
REMARK  103  A    between atoms: _270  and  _271
REMARK                            x       y       z     vdW  Elec       q    Type
REMARK                         _______ _______ _______ _____ _____    ______ ____
ROOT
ATOM      1  O   HOH     1     -25.322 -13.162  44.945  0.00  0.00    +0.000 OA
ENDROOT
TORSDOF 0
REMARK  Name = ../refined-set-2016/4mjp/4mjp_pocket.pdb
REMARK  103 active torsions:
REMARK  status: ('A' for Active; 'I' for Inactive)
REMARK    1  A    between atoms: _1  and  _3
REMARK    2  A    between atoms: _3  and  _4
REMARK    3  A    between atoms: _3  and  _6
REMARK    4  A    between atoms: _6  and  _7
REMARK    5  A    between atoms: _10  and  _12
REMARK    6  A    between atoms: _12  and  _13
REMARK    7  A    between atoms: _12  and  _15
REMARK    8  A    between atoms: _15  and  _16
REMARK    9  A    between atoms: _16  and  _17
REMARK   10  A    between atoms: _17  and  _18
REMARK   11  A    between atoms: _27  and  _29
REMARK   12  A    between atoms: _29  and  _30
REMARK   13  A    between atoms: _29  and  _32
REMARK   14  A    between atoms: _32  and  _33
REMARK   15  A    between atoms: _38  and  _39
REMARK   16  A    between atoms: _41  and  _43
REMARK   17  A    between atoms: _43  and  _44
REMARK   18  A    between atoms: _43  and  _46
REMARK   19  A    between atoms: _46  and  _47
REMARK   20  A    between atoms: _50  and  _52
REMARK   21  A    between atoms: _52  and  _53
REMARK   22  A    between atoms: _52  and  _55
REMARK   23  A    between atoms: _58  and  _60
REMARK   24  A    between atoms: _60  and  _61
REMARK   25  A    between atoms: _64  and  _66
REMARK   26  A    between atoms: _66  and  _67
REMARK   27  A    between atoms: _66  and  _69
REMARK   28  A    between atoms: _69  and  _70
REMARK   29  A    between atoms: _73  and  _75
REMARK   30  A    between atoms: _75  and  _76
REMARK   31  A    between atoms: _75  and  _78
REMARK   32  A    between atoms: _78  and  _79
REMARK   33  A    between atoms: _82  and  _84
REMARK   34  A    between atoms: _84  and  _85
REMARK   35  A    between atoms: _87  and  _89
REMARK   36  A    between atoms: _89  and  _90
REMARK   37  A    between atoms: _89  and  _92
REMARK   38  A    between atoms: _92  and  _93
REMARK   39  A    between atoms: _98  and  _100
REMARK   40  A    between atoms: _100  and  _101
REMARK   41  A    between atoms: _100  and  _103
REMARK   42  A    between atoms: _103  and  _104
REMARK   43  A    between atoms: _104  and  _105
REMARK   44  A    between atoms: _105  and  _106
REMARK   45  A    between atoms: _115  and  _117
REMARK   46  A    between atoms: _117  and  _118
REMARK   47  A    between atoms: _117  and  _120
REMARK   48  A    between atoms: _120  and  _121
REMARK   49  A    between atoms: _124  and  _126
REMARK   50  A    between atoms: _126  and  _127
REMARK   51  A    between atoms: _130  and  _132
REMARK   52  A    between atoms: _132  and  _133
REMARK   53  A    between atoms: _132  and  _135
REMARK   54  A    between atoms: _138  and  _140
REMARK   55  A    between atoms: _140  and  _141
REMARK   56  A    between atoms: _140  and  _143
REMARK   57  A    between atoms: _143  and  _144
REMARK   58  A    between atoms: _144  and  _145
REMARK   59  A    between atoms: _145  and  _146
REMARK   60  A    between atoms: _155  and  _157
REMARK   61  A    between atoms: _157  and  _158
REMARK   62  A    between atoms: _157  and  _160
REMARK   63  A    between atoms: _160  and  _161
REMARK   64  A    between atoms: _168  and  _169
REMARK   65  A    between atoms: _174  and  _176
REMARK   66  A    between atoms: _176  and  _177
REMARK   67  A    between atoms: _176  and  _179
REMARK   68  A    between atoms: _179  and  _180
REMARK   69  A    between atoms: _183  and  _185
REMARK   70  A    between atoms: _185  and  _186
REMARK   71  A    between atoms: _185  and  _188
REMARK   72  A    between atoms: _188  and  _189
REMARK   73  A    between atoms: _194  and  _195
REMARK   74  A    between atoms: _197  and  _199
REMARK   75  A    between atoms: _199  and  _200
REMARK   76  A    between atoms: _199  and  _202
REMARK   77  A    between atoms: _202  and  _203
REMARK   78  A    between atoms: _203  and  _204
REMARK   79  A    between atoms: _204  and  _205
REMARK   80  A    between atoms: _214  and  _216
REMARK   81  A    between atoms: _216  and  _217
REMARK   82  A    between atoms: _216  and  _219
REMARK   83  A    between atoms: _219  and  _220
REMARK   84  A    between atoms: _220  and  _221
REMARK   85  A    between atoms: _221  and  _222
REMARK   86  A    between atoms: _231  and  _233
REMARK   87  A    between atoms: _233  and  _234
REMARK   88  A    between atoms: _233  and  _236
REMARK   89  A    between atoms: _239  and  _241
REMARK   90  A    between atoms: _241  and  _242
REMARK   91  A    between atoms: _241  and  _244
REMARK   92  A    between atoms: _244  and  _245
REMARK   93  A    between atoms: _248  and  _250
REMARK   94  A    between atoms: _250  and  _251
REMARK   95  A    between atoms: _250  and  _253
REMARK   96  A    between atoms: _256  and  _258
REMARK   97  A    between atoms: _258  and  _259
REMARK   98  A    between atoms: _258  and  _261
REMARK   99  A    between atoms: _264  and  _266
REMARK  100  A    between atoms: _266  and  _267
REMARK  101  A    between atoms: _266  and  _269
REMARK  102  A    between atoms: _269  and  _270
REMARK  103  A    between atoms: _270  and  _271
REMARK                            x       y       z     vdW  Elec       q    Type
REMARK                         _______ _______ _______ _____ _____    ______ ____
ROOT
ATOM      1  O   HOH     1     -24.393 -12.748  47.619  0.00  0.00    +0.000 OA
ENDROOT
TORSDOF 0
REMARK  Name = ../refined-set-2016/4mjp/4mjp_pocket.pdb
REMARK  103 active torsions:
REMARK  status: ('A' for Active; 'I' for Inactive)
REMARK    1  A    between atoms: _1  and  _3
REMARK    2  A    between atoms: _3  and  _4
REMARK    3  A    between atoms: _3  and  _6
REMARK    4  A    between atoms: _6  and  _7
REMARK    5  A    between atoms: _10  and  _12
REMARK    6  A    between atoms: _12  and  _13
REMARK    7  A    between atoms: _12  and  _15
REMARK    8  A    between atoms: _15  and  _16
REMARK    9  A    between atoms: _16  and  _17
REMARK   10  A    between atoms: _17  and  _18
REMARK   11  A    between atoms: _27  and  _29
REMARK   12  A    between atoms: _29  and  _30
REMARK   13  A    between atoms: _29  and  _32
REMARK   14  A    between atoms: _32  and  _33
REMARK   15  A    between atoms: _38  and  _39
REMARK   16  A    between atoms: _41  and  _43
REMARK   17  A    between atoms: _43  and  _44
REMARK   18  A    between atoms: _43  and  _46
REMARK   19  A    between atoms: _46  and  _47
REMARK   20  A    between atoms: _50  and  _52
REMARK   21  A    between atoms: _52  and  _53
REMARK   22  A    between atoms: _52  and  _55
REMARK   23  A    between atoms: _58  and  _60
REMARK   24  A    between atoms: _60  and  _61
REMARK   25  A    between atoms: _64  and  _66
REMARK   26  A    between atoms: _66  and  _67
REMARK   27  A    between atoms: _66  and  _69
REMARK   28  A    between atoms: _69  and  _70
REMARK   29  A    between atoms: _73  and  _75
REMARK   30  A    between atoms: _75  and  _76
REMARK   31  A    between atoms: _75  and  _78
REMARK   32  A    between atoms: _78  and  _79
REMARK   33  A    between atoms: _82  and  _84
REMARK   34  A    between atoms: _84  and  _85
REMARK   35  A    between atoms: _87  and  _89
REMARK   36  A    between atoms: _89  and  _90
REMARK   37  A    between atoms: _89  and  _92
REMARK   38  A    between atoms: _92  and  _93
REMARK   39  A    between atoms: _98  and  _100
REMARK   40  A    between atoms: _100  and  _101
REMARK   41  A    between atoms: _100  and  _103
REMARK   42  A    between atoms: _103  and  _104
REMARK   43  A    between atoms: _104  and  _105
REMARK   44  A    between atoms: _105  and  _106
REMARK   45  A    between atoms: _115  and  _117
REMARK   46  A    between atoms: _117  and  _118
REMARK   47  A    between atoms: _117  and  _120
REMARK   48  A    between atoms: _120  and  _121
REMARK   49  A    between atoms: _124  and  _126
REMARK   50  A    between atoms: _126  and  _127
REMARK   51  A    between atoms: _130  and  _132
REMARK   52  A    between atoms: _132  and  _133
REMARK   53  A    between atoms: _132  and  _135
REMARK   54  A    between atoms: _138  and  _140
REMARK   55  A    between atoms: _140  and  _141
REMARK   56  A    between atoms: _140  and  _143
REMARK   57  A    between atoms: _143  and  _144
REMARK   58  A    between atoms: _144  and  _145
REMARK   59  A    between atoms: _145  and  _146
REMARK   60  A    between atoms: _155  and  _157
REMARK   61  A    between atoms: _157  and  _158
REMARK   62  A    between atoms: _157  and  _160
REMARK   63  A    between atoms: _160  and  _161
REMARK   64  A    between atoms: _168  and  _169
REMARK   65  A    between atoms: _174  and  _176
REMARK   66  A    between atoms: _176  and  _177
REMARK   67  A    between atoms: _176  and  _179
REMARK   68  A    between atoms: _179  and  _180
REMARK   69  A    between atoms: _183  and  _185
REMARK   70  A    between atoms: _185  and  _186
REMARK   71  A    between atoms: _185  and  _188
REMARK   72  A    between atoms: _188  and  _189
REMARK   73  A    between atoms: _194  and  _195
REMARK   74  A    between atoms: _197  and  _199
REMARK   75  A    between atoms: _199  and  _200
REMARK   76  A    between atoms: _199  and  _202
REMARK   77  A    between atoms: _202  and  _203
REMARK   78  A    between atoms: _203  and  _204
REMARK   79  A    between atoms: _204  and  _205
REMARK   80  A    between atoms: _214  and  _216
REMARK   81  A    between atoms: _216  and  _217
REMARK   82  A    between atoms: _216  and  _219
REMARK   83  A    between atoms: _219  and  _220
REMARK   84  A    between atoms: _220  and  _221
REMARK   85  A    between atoms: _221  and  _222
REMARK   86  A    between atoms: _231  and  _233
REMARK   87  A    between atoms: _233  and  _234
REMARK   88  A    between atoms: _233  and  _236
REMARK   89  A    between atoms: _239  and  _241
REMARK   90  A    between atoms: _241  and  _242
REMARK   91  A    between atoms: _241  and  _244
REMARK   92  A    between atoms: _244  and  _245
REMARK   93  A    between atoms: _248  and  _250
REMARK   94  A    between atoms: _250  and  _251
REMARK   95  A    between atoms: _250  and  _253
REMARK   96  A    between atoms: _256  and  _258
REMARK   97  A    between atoms: _258  and  _259
REMARK   98  A    between atoms: _258  and  _261
REMARK   99  A    between atoms: _264  and  _266
REMARK  100  A    between atoms: _266  and  _267
REMARK  101  A    between atoms: _266  and  _269
REMARK  102  A    between atoms: _269  and  _270
REMARK  103  A    between atoms: _270  and  _271
REMARK                            x       y       z     vdW  Elec       q    Type
REMARK                         _______ _______ _______ _____ _____    ______ ____
ROOT
ATOM      1  O   HOH     1     -12.850 -20.039  40.125  0.00  0.00    +0.000 OA
ENDROOT
TORSDOF 0
REMARK  Name = ../refined-set-2016/4mjp/4mjp_pocket.pdb
REMARK  103 active torsions:
REMARK  status: ('A' for Active; 'I' for Inactive)
REMARK    1  A    between atoms: _1  and  _3
REMARK    2  A    between atoms: _3  and  _4
REMARK    3  A    between atoms: _3  and  _6
REMARK    4  A    between atoms: _6  and  _7
REMARK    5  A    between atoms: _10  and  _12
REMARK    6  A    between atoms: _12  and  _13
REMARK    7  A    between atoms: _12  and  _15
REMARK    8  A    between atoms: _15  and  _16
REMARK    9  A    between atoms: _16  and  _17
REMARK   10  A    between atoms: _17  and  _18
REMARK   11  A    between atoms: _27  and  _29
REMARK   12  A    between atoms: _29  and  _30
REMARK   13  A    between atoms: _29  and  _32
REMARK   14  A    between atoms: _32  and  _33
REMARK   15  A    between atoms: _38  and  _39
REMARK   16  A    between atoms: _41  and  _43
REMARK   17  A    between atoms: _43  and  _44
REMARK   18  A    between atoms: _43  and  _46
REMARK   19  A    between atoms: _46  and  _47
REMARK   20  A    between atoms: _50  and  _52
REMARK   21  A    between atoms: _52  and  _53
REMARK   22  A    between atoms: _52  and  _55
REMARK   23  A    between atoms: _58  and  _60
REMARK   24  A    between atoms: _60  and  _61
REMARK   25  A    between atoms: _64  and  _66
REMARK   26  A    between atoms: _66  and  _67
REMARK   27  A    between atoms: _66  and  _69
REMARK   28  A    between atoms: _69  and  _70
REMARK   29  A    between atoms: _73  and  _75
REMARK   30  A    between atoms: _75  and  _76
REMARK   31  A    between atoms: _75  and  _78
REMARK   32  A    between atoms: _78  and  _79
REMARK   33  A    between atoms: _82  and  _84
REMARK   34  A    between atoms: _84  and  _85
REMARK   35  A    between atoms: _87  and  _89
REMARK   36  A    between atoms: _89  and  _90
REMARK   37  A    between atoms: _89  and  _92
REMARK   38  A    between atoms: _92  and  _93
REMARK   39  A    between atoms: _98  and  _100
REMARK   40  A    between atoms: _100  and  _101
REMARK   41  A    between atoms: _100  and  _103
REMARK   42  A    between atoms: _103  and  _104
REMARK   43  A    between atoms: _104  and  _105
REMARK   44  A    between atoms: _105  and  _106
REMARK   45  A    between atoms: _115  and  _117
REMARK   46  A    between atoms: _117  and  _118
REMARK   47  A    between atoms: _117  and  _120
REMARK   48  A    between atoms: _120  and  _121
REMARK   49  A    between atoms: _124  and  _126
REMARK   50  A    between atoms: _126  and  _127
REMARK   51  A    between atoms: _130  and  _132
REMARK   52  A    between atoms: _132  and  _133
REMARK   53  A    between atoms: _132  and  _135
REMARK   54  A    between atoms: _138  and  _140
REMARK   55  A    between atoms: _140  and  _141
REMARK   56  A    between atoms: _140  and  _143
REMARK   57  A    between atoms: _143  and  _144
REMARK   58  A    between atoms: _144  and  _145
REMARK   59  A    between atoms: _145  and  _146
REMARK   60  A    between atoms: _155  and  _157
REMARK   61  A    between atoms: _157  and  _158
REMARK   62  A    between atoms: _157  and  _160
REMARK   63  A    between atoms: _160  and  _161
REMARK   64  A    between atoms: _168  and  _169
REMARK   65  A    between atoms: _174  and  _176
REMARK   66  A    between atoms: _176  and  _177
REMARK   67  A    between atoms: _176  and  _179
REMARK   68  A    between atoms: _179  and  _180
REMARK   69  A    between atoms: _183  and  _185
REMARK   70  A    between atoms: _185  and  _186
REMARK   71  A    between atoms: _185  and  _188
REMARK   72  A    between atoms: _188  and  _189
REMARK   73  A    between atoms: _194  and  _195
REMARK   74  A    between atoms: _197  and  _199
REMARK   75  A    between atoms: _199  and  _200
REMARK   76  A    between atoms: _199  and  _202
REMARK   77  A    between atoms: _202  and  _203
REMARK   78  A    between atoms: _203  and  _204
REMARK   79  A    between atoms: _204  and  _205
REMARK   80  A    between atoms: _214  and  _216
REMARK   81  A    between atoms: _216  and  _217
REMARK   82  A    between atoms: _216  and  _219
REMARK   83  A    between atoms: _219  and  _220
REMARK   84  A    between atoms: _220  and  _221
REMARK   85  A    between atoms: _221  and  _222
REMARK   86  A    between atoms: _231  and  _233
REMARK   87  A    between atoms: _233  and  _234
REMARK   88  A    between atoms: _233  and  _236
REMARK   89  A    between atoms: _239  and  _241
REMARK   90  A    between atoms: _241  and  _242
REMARK   91  A    between atoms: _241  and  _244
REMARK   92  A    between atoms: _244  and  _245
REMARK   93  A    between atoms: _248  and  _250
REMARK   94  A    between atoms: _250  and  _251
REMARK   95  A    between atoms: _250  and  _253
REMARK   96  A    between atoms: _256  and  _258
REMARK   97  A    between atoms: _258  and  _259
REMARK   98  A    between atoms: _258  and  _261
REMARK   99  A    between atoms: _264  and  _266
REMARK  100  A    between atoms: _266  and  _267
REMARK  101  A    between atoms: _266  and  _269
REMARK  102  A    between atoms: _269  and  _270
REMARK  103  A    between atoms: _270  and  _271
REMARK                            x       y       z     vdW  Elec       q    Type
REMARK                         _______ _______ _______ _____ _____    ______ ____
ROOT
ATOM      1  O   HOH     1     -16.501 -23.384  40.609  0.00  0.00    +0.000 OA
ENDROOT
TORSDOF 0
REMARK  Name = ../refined-set-2016/4mjp/4mjp_pocket.pdb
REMARK  103 active torsions:
REMARK  status: ('A' for Active; 'I' for Inactive)
REMARK    1  A    between atoms: _1  and  _3
REMARK    2  A    between atoms: _3  and  _4
REMARK    3  A    between atoms: _3  and  _6
REMARK    4  A    between atoms: _6  and  _7
REMARK    5  A    between atoms: _10  and  _12
REMARK    6  A    between atoms: _12  and  _13
REMARK    7  A    between atoms: _12  and  _15
REMARK    8  A    between atoms: _15  and  _16
REMARK    9  A    between atoms: _16  and  _17
REMARK   10  A    between atoms: _17  and  _18
REMARK   11  A    between atoms: _27  and  _29
REMARK   12  A    between atoms: _29  and  _30
REMARK   13  A    between atoms: _29  and  _32
REMARK   14  A    between atoms: _32  and  _33
REMARK   15  A    between atoms: _38  and  _39
REMARK   16  A    between atoms: _41  and  _43
REMARK   17  A    between atoms: _43  and  _44
REMARK   18  A    between atoms: _43  and  _46
REMARK   19  A    between atoms: _46  and  _47
REMARK   20  A    between atoms: _50  and  _52
REMARK   21  A    between atoms: _52  and  _53
REMARK   22  A    between atoms: _52  and  _55
REMARK   23  A    between atoms: _58  and  _60
REMARK   24  A    between atoms: _60  and  _61
REMARK   25  A    between atoms: _64  and  _66
REMARK   26  A    between atoms: _66  and  _67
REMARK   27  A    between atoms: _66  and  _69
REMARK   28  A    between atoms: _69  and  _70
REMARK   29  A    between atoms: _73  and  _75
REMARK   30  A    between atoms: _75  and  _76
REMARK   31  A    between atoms: _75  and  _78
REMARK   32  A    between atoms: _78  and  _79
REMARK   33  A    between atoms: _82  and  _84
REMARK   34  A    between atoms: _84  and  _85
REMARK   35  A    between atoms: _87  and  _89
REMARK   36  A    between atoms: _89  and  _90
REMARK   37  A    between atoms: _89  and  _92
REMARK   38  A    between atoms: _92  and  _93
REMARK   39  A    between atoms: _98  and  _100
REMARK   40  A    between atoms: _100  and  _101
REMARK   41  A    between atoms: _100  and  _103
REMARK   42  A    between atoms: _103  and  _104
REMARK   43  A    between atoms: _104  and  _105
REMARK   44  A    between atoms: _105  and  _106
REMARK   45  A    between atoms: _115  and  _117
REMARK   46  A    between atoms: _117  and  _118
REMARK   47  A    between atoms: _117  and  _120
REMARK   48  A    between atoms: _120  and  _121
REMARK   49  A    between atoms: _124  and  _126
REMARK   50  A    between atoms: _126  and  _127
REMARK   51  A    between atoms: _130  and  _132
REMARK   52  A    between atoms: _132  and  _133
REMARK   53  A    between atoms: _132  and  _135
REMARK   54  A    between atoms: _138  and  _140
REMARK   55  A    between atoms: _140  and  _141
REMARK   56  A    between atoms: _140  and  _143
REMARK   57  A    between atoms: _143  and  _144
REMARK   58  A    between atoms: _144  and  _145
REMARK   59  A    between atoms: _145  and  _146
REMARK   60  A    between atoms: _155  and  _157
REMARK   61  A    between atoms: _157  and  _158
REMARK   62  A    between atoms: _157  and  _160
REMARK   63  A    between atoms: _160  and  _161
REMARK   64  A    between atoms: _168  and  _169
REMARK   65  A    between atoms: _174  and  _176
REMARK   66  A    between atoms: _176  and  _177
REMARK   67  A    between atoms: _176  and  _179
REMARK   68  A    between atoms: _179  and  _180
REMARK   69  A    between atoms: _183  and  _185
REMARK   70  A    between atoms: _185  and  _186
REMARK   71  A    between atoms: _185  and  _188
REMARK   72  A    between atoms: _188  and  _189
REMARK   73  A    between atoms: _194  and  _195
REMARK   74  A    between atoms: _197  and  _199
REMARK   75  A    between atoms: _199  and  _200
REMARK   76  A    between atoms: _199  and  _202
REMARK   77  A    between atoms: _202  and  _203
REMARK   78  A    between atoms: _203  and  _204
REMARK   79  A    between atoms: _204  and  _205
REMARK   80  A    between atoms: _214  and  _216
REMARK   81  A    between atoms: _216  and  _217
REMARK   82  A    between atoms: _216  and  _219
REMARK   83  A    between atoms: _219  and  _220
REMARK   84  A    between atoms: _220  and  _221
REMARK   85  A    between atoms: _221  and  _222
REMARK   86  A    between atoms: _231  and  _233
REMARK   87  A    between atoms: _233  and  _234
REMARK   88  A    between atoms: _233  and  _236
REMARK   89  A    between atoms: _239  and  _241
REMARK   90  A    between atoms: _241  and  _242
REMARK   91  A    between atoms: _241  and  _244
REMARK   92  A    between atoms: _244  and  _245
REMARK   93  A    between atoms: _248  and  _250
REMARK   94  A    between atoms: _250  and  _251
REMARK   95  A    between atoms: _250  and  _253
REMARK   96  A    between atoms: _256  and  _258
REMARK   97  A    between atoms: _258  and  _259
REMARK   98  A    between atoms: _258  and  _261
REMARK   99  A    between atoms: _264  and  _266
REMARK  100  A    between atoms: _266  and  _267
REMARK  101  A    between atoms: _266  and  _269
REMARK  102  A    between atoms: _269  and  _270
REMARK  103  A    between atoms: _270  and  _271
REMARK                            x       y       z     vdW  Elec       q    Type
REMARK                         _______ _______ _______ _____ _____    ______ ____
ROOT
ATOM      1  O   HOH     1     -24.281 -20.598  40.342  0.00  0.00    +0.000 OA
ENDROOT
TORSDOF 0
REMARK  Name = ../refined-set-2016/4mjp/4mjp_pocket.pdb
REMARK  103 active torsions:
REMARK  status: ('A' for Active; 'I' for Inactive)
REMARK    1  A    between atoms: _1  and  _3
REMARK    2  A    between atoms: _3  and  _4
REMARK    3  A    between atoms: _3  and  _6
REMARK    4  A    between atoms: _6  and  _7
REMARK    5  A    between atoms: _10  and  _12
REMARK    6  A    between atoms: _12  and  _13
REMARK    7  A    between atoms: _12  and  _15
REMARK    8  A    between atoms: _15  and  _16
REMARK    9  A    between atoms: _16  and  _17
REMARK   10  A    between atoms: _17  and  _18
REMARK   11  A    between atoms: _27  and  _29
REMARK   12  A    between atoms: _29  and  _30
REMARK   13  A    between atoms: _29  and  _32
REMARK   14  A    between atoms: _32  and  _33
REMARK   15  A    between atoms: _38  and  _39
REMARK   16  A    between atoms: _41  and  _43
REMARK   17  A    between atoms: _43  and  _44
REMARK   18  A    between atoms: _43  and  _46
REMARK   19  A    between atoms: _46  and  _47
REMARK   20  A    between atoms: _50  and  _52
REMARK   21  A    between atoms: _52  and  _53
REMARK   22  A    between atoms: _52  and  _55
REMARK   23  A    between atoms: _58  and  _60
REMARK   24  A    between atoms: _60  and  _61
REMARK   25  A    between atoms: _64  and  _66
REMARK   26  A    between atoms: _66  and  _67
REMARK   27  A    between atoms: _66  and  _69
REMARK   28  A    between atoms: _69  and  _70
REMARK   29  A    between atoms: _73  and  _75
REMARK   30  A    between atoms: _75  and  _76
REMARK   31  A    between atoms: _75  and  _78
REMARK   32  A    between atoms: _78  and  _79
REMARK   33  A    between atoms: _82  and  _84
REMARK   34  A    between atoms: _84  and  _85
REMARK   35  A    between atoms: _87  and  _89
REMARK   36  A    between atoms: _89  and  _90
REMARK   37  A    between atoms: _89  and  _92
REMARK   38  A    between atoms: _92  and  _93
REMARK   39  A    between atoms: _98  and  _100
REMARK   40  A    between atoms: _100  and  _101
REMARK   41  A    between atoms: _100  and  _103
REMARK   42  A    between atoms: _103  and  _104
REMARK   43  A    between atoms: _104  and  _105
REMARK   44  A    between atoms: _105  and  _106
REMARK   45  A    between atoms: _115  and  _117
REMARK   46  A    between atoms: _117  and  _118
REMARK   47  A    between atoms: _117  and  _120
REMARK   48  A    between atoms: _120  and  _121
REMARK   49  A    between atoms: _124  and  _126
REMARK   50  A    between atoms: _126  and  _127
REMARK   51  A    between atoms: _130  and  _132
REMARK   52  A    between atoms: _132  and  _133
REMARK   53  A    between atoms: _132  and  _135
REMARK   54  A    between atoms: _138  and  _140
REMARK   55  A    between atoms: _140  and  _141
REMARK   56  A    between atoms: _140  and  _143
REMARK   57  A    between atoms: _143  and  _144
REMARK   58  A    between atoms: _144  and  _145
REMARK   59  A    between atoms: _145  and  _146
REMARK   60  A    between atoms: _155  and  _157
REMARK   61  A    between atoms: _157  and  _158
REMARK   62  A    between atoms: _157  and  _160
REMARK   63  A    between atoms: _160  and  _161
REMARK   64  A    between atoms: _168  and  _169
REMARK   65  A    between atoms: _174  and  _176
REMARK   66  A    between atoms: _176  and  _177
REMARK   67  A    between atoms: _176  and  _179
REMARK   68  A    between atoms: _179  and  _180
REMARK   69  A    between atoms: _183  and  _185
REMARK   70  A    between atoms: _185  and  _186
REMARK   71  A    between atoms: _185  and  _188
REMARK   72  A    between atoms: _188  and  _189
REMARK   73  A    between atoms: _194  and  _195
REMARK   74  A    between atoms: _197  and  _199
REMARK   75  A    between atoms: _199  and  _200
REMARK   76  A    between atoms: _199  and  _202
REMARK   77  A    between atoms: _202  and  _203
REMARK   78  A    between atoms: _203  and  _204
REMARK   79  A    between atoms: _204  and  _205
REMARK   80  A    between atoms: _214  and  _216
REMARK   81  A    between atoms: _216  and  _217
REMARK   82  A    between atoms: _216  and  _219
REMARK   83  A    between atoms: _219  and  _220
REMARK   84  A    between atoms: _220  and  _221
REMARK   85  A    between atoms: _221  and  _222
REMARK   86  A    between atoms: _231  and  _233
REMARK   87  A    between atoms: _233  and  _234
REMARK   88  A    between atoms: _233  and  _236
REMARK   89  A    between atoms: _239  and  _241
REMARK   90  A    between atoms: _241  and  _242
REMARK   91  A    between atoms: _241  and  _244
REMARK   92  A    between atoms: _244  and  _245
REMARK   93  A    between atoms: _248  and  _250
REMARK   94  A    between atoms: _250  and  _251
REMARK   95  A    between atoms: _250  and  _253
REMARK   96  A    between atoms: _256  and  _258
REMARK   97  A    between atoms: _258  and  _259
REMARK   98  A    between atoms: _258  and  _261
REMARK   99  A    between atoms: _264  and  _266
REMARK  100  A    between atoms: _266  and  _267
REMARK  101  A    between atoms: _266  and  _269
REMARK  102  A    between atoms: _269  and  _270
REMARK  103  A    between atoms: _270  and  _271
REMARK                            x       y       z     vdW  Elec       q    Type
REMARK                         _______ _______ _______ _____ _____    ______ ____
ROOT
ATOM      1  O   HOH     1     -15.779 -25.278  36.181  0.00  0.00    +0.000 OA
ENDROOT
TORSDOF 0
REMARK  Name = ../refined-set-2016/4mjp/4mjp_pocket.pdb
REMARK  103 active torsions:
REMARK  status: ('A' for Active; 'I' for Inactive)
REMARK    1  A    between atoms: _1  and  _3
REMARK    2  A    between atoms: _3  and  _4
REMARK    3  A    between atoms: _3  and  _6
REMARK    4  A    between atoms: _6  and  _7
REMARK    5  A    between atoms: _10  and  _12
REMARK    6  A    between atoms: _12  and  _13
REMARK    7  A    between atoms: _12  and  _15
REMARK    8  A    between atoms: _15  and  _16
REMARK    9  A    between atoms: _16  and  _17
REMARK   10  A    between atoms: _17  and  _18
REMARK   11  A    between atoms: _27  and  _29
REMARK   12  A    between atoms: _29  and  _30
REMARK   13  A    between atoms: _29  and  _32
REMARK   14  A    between atoms: _32  and  _33
REMARK   15  A    between atoms: _38  and  _39
REMARK   16  A    between atoms: _41  and  _43
REMARK   17  A    between atoms: _43  and  _44
REMARK   18  A    between atoms: _43  and  _46
REMARK   19  A    between atoms: _46  and  _47
REMARK   20  A    between atoms: _50  and  _52
REMARK   21  A    between atoms: _52  and  _53
REMARK   22  A    between atoms: _52  and  _55
REMARK   23  A    between atoms: _58  and  _60
REMARK   24  A    between atoms: _60  and  _61
REMARK   25  A    between atoms: _64  and  _66
REMARK   26  A    between atoms: _66  and  _67
REMARK   27  A    between atoms: _66  and  _69
REMARK   28  A    between atoms: _69  and  _70
REMARK   29  A    between atoms: _73  and  _75
REMARK   30  A    between atoms: _75  and  _76
REMARK   31  A    between atoms: _75  and  _78
REMARK   32  A    between atoms: _78  and  _79
REMARK   33  A    between atoms: _82  and  _84
REMARK   34  A    between atoms: _84  and  _85
REMARK   35  A    between atoms: _87  and  _89
REMARK   36  A    between atoms: _89  and  _90
REMARK   37  A    between atoms: _89  and  _92
REMARK   38  A    between atoms: _92  and  _93
REMARK   39  A    between atoms: _98  and  _100
REMARK   40  A    between atoms: _100  and  _101
REMARK   41  A    between atoms: _100  and  _103
REMARK   42  A    between atoms: _103  and  _104
REMARK   43  A    between atoms: _104  and  _105
REMARK   44  A    between atoms: _105  and  _106
REMARK   45  A    between atoms: _115  and  _117
REMARK   46  A    between atoms: _117  and  _118
REMARK   47  A    between atoms: _117  and  _120
REMARK   48  A    between atoms: _120  and  _121
REMARK   49  A    between atoms: _124  and  _126
REMARK   50  A    between atoms: _126  and  _127
REMARK   51  A    between atoms: _130  and  _132
REMARK   52  A    between atoms: _132  and  _133
REMARK   53  A    between atoms: _132  and  _135
REMARK   54  A    between atoms: _138  and  _140
REMARK   55  A    between atoms: _140  and  _141
REMARK   56  A    between atoms: _140  and  _143
REMARK   57  A    between atoms: _143  and  _144
REMARK   58  A    between atoms: _144  and  _145
REMARK   59  A    between atoms: _145  and  _146
REMARK   60  A    between atoms: _155  and  _157
REMARK   61  A    between atoms: _157  and  _158
REMARK   62  A    between atoms: _157  and  _160
REMARK   63  A    between atoms: _160  and  _161
REMARK   64  A    between atoms: _168  and  _169
REMARK   65  A    between atoms: _174  and  _176
REMARK   66  A    between atoms: _176  and  _177
REMARK   67  A    between atoms: _176  and  _179
REMARK   68  A    between atoms: _179  and  _180
REMARK   69  A    between atoms: _183  and  _185
REMARK   70  A    between atoms: _185  and  _186
REMARK   71  A    between atoms: _185  and  _188
REMARK   72  A    between atoms: _188  and  _189
REMARK   73  A    between atoms: _194  and  _195
REMARK   74  A    between atoms: _197  and  _199
REMARK   75  A    between atoms: _199  and  _200
REMARK   76  A    between atoms: _199  and  _202
REMARK   77  A    between atoms: _202  and  _203
REMARK   78  A    between atoms: _203  and  _204
REMARK   79  A    between atoms: _204  and  _205
REMARK   80  A    between atoms: _214  and  _216
REMARK   81  A    between atoms: _216  and  _217
REMARK   82  A    between atoms: _216  and  _219
REMARK   83  A    between atoms: _219  and  _220
REMARK   84  A    between atoms: _220  and  _221
REMARK   85  A    between atoms: _221  and  _222
REMARK   86  A    between atoms: _231  and  _233
REMARK   87  A    between atoms: _233  and  _234
REMARK   88  A    between atoms: _233  and  _236
REMARK   89  A    between atoms: _239  and  _241
REMARK   90  A    between atoms: _241  and  _242
REMARK   91  A    between atoms: _241  and  _244
REMARK   92  A    between atoms: _244  and  _245
REMARK   93  A    between atoms: _248  and  _250
REMARK   94  A    between atoms: _250  and  _251
REMARK   95  A    between atoms: _250  and  _253
REMARK   96  A    between atoms: _256  and  _258
REMARK   97  A    between atoms: _258  and  _259
REMARK   98  A    between atoms: _258  and  _261
REMARK   99  A    between atoms: _264  and  _266
REMARK  100  A    between atoms: _266  and  _267
REMARK  101  A    between atoms: _266  and  _269
REMARK  102  A    between atoms: _269  and  _270
REMARK  103  A    between atoms: _270  and  _271
REMARK                            x       y       z     vdW  Elec       q    Type
REMARK                         _______ _______ _______ _____ _____    ______ ____
ROOT
ATOM      1  O   HOH     1     -21.809 -20.123  41.586  0.00  0.00    +0.000 OA
ENDROOT
TORSDOF 0
REMARK  Name = ../refined-set-2016/4mjp/4mjp_pocket.pdb
REMARK  103 active torsions:
REMARK  status: ('A' for Active; 'I' for Inactive)
REMARK    1  A    between atoms: _1  and  _3
REMARK    2  A    between atoms: _3  and  _4
REMARK    3  A    between atoms: _3  and  _6
REMARK    4  A    between atoms: _6  and  _7
REMARK    5  A    between atoms: _10  and  _12
REMARK    6  A    between atoms: _12  and  _13
REMARK    7  A    between atoms: _12  and  _15
REMARK    8  A    between atoms: _15  and  _16
REMARK    9  A    between atoms: _16  and  _17
REMARK   10  A    between atoms: _17  and  _18
REMARK   11  A    between atoms: _27  and  _29
REMARK   12  A    between atoms: _29  and  _30
REMARK   13  A    between atoms: _29  and  _32
REMARK   14  A    between atoms: _32  and  _33
REMARK   15  A    between atoms: _38  and  _39
REMARK   16  A    between atoms: _41  and  _43
REMARK   17  A    between atoms: _43  and  _44
REMARK   18  A    between atoms: _43  and  _46
REMARK   19  A    between atoms: _46  and  _47
REMARK   20  A    between atoms: _50  and  _52
REMARK   21  A    between atoms: _52  and  _53
REMARK   22  A    between atoms: _52  and  _55
REMARK   23  A    between atoms: _58  and  _60
REMARK   24  A    between atoms: _60  and  _61
REMARK   25  A    between atoms: _64  and  _66
REMARK   26  A    between atoms: _66  and  _67
REMARK   27  A    between atoms: _66  and  _69
REMARK   28  A    between atoms: _69  and  _70
REMARK   29  A    between atoms: _73  and  _75
REMARK   30  A    between atoms: _75  and  _76
REMARK   31  A    between atoms: _75  and  _78
REMARK   32  A    between atoms: _78  and  _79
REMARK   33  A    between atoms: _82  and  _84
REMARK   34  A    between atoms: _84  and  _85
REMARK   35  A    between atoms: _87  and  _89
REMARK   36  A    between atoms: _89  and  _90
REMARK   37  A    between atoms: _89  and  _92
REMARK   38  A    between atoms: _92  and  _93
REMARK   39  A    between atoms: _98  and  _100
REMARK   40  A    between atoms: _100  and  _101
REMARK   41  A    between atoms: _100  and  _103
REMARK   42  A    between atoms: _103  and  _104
REMARK   43  A    between atoms: _104  and  _105
REMARK   44  A    between atoms: _105  and  _106
REMARK   45  A    between atoms: _115  and  _117
REMARK   46  A    between atoms: _117  and  _118
REMARK   47  A    between atoms: _117  and  _120
REMARK   48  A    between atoms: _120  and  _121
REMARK   49  A    between atoms: _124  and  _126
REMARK   50  A    between atoms: _126  and  _127
REMARK   51  A    between atoms: _130  and  _132
REMARK   52  A    between atoms: _132  and  _133
REMARK   53  A    between atoms: _132  and  _135
REMARK   54  A    between atoms: _138  and  _140
REMARK   55  A    between atoms: _140  and  _141
REMARK   56  A    between atoms: _140  and  _143
REMARK   57  A    between atoms: _143  and  _144
REMARK   58  A    between atoms: _144  and  _145
REMARK   59  A    between atoms: _145  and  _146
REMARK   60  A    between atoms: _155  and  _157
REMARK   61  A    between atoms: _157  and  _158
REMARK   62  A    between atoms: _157  and  _160
REMARK   63  A    between atoms: _160  and  _161
REMARK   64  A    between atoms: _168  and  _169
REMARK   65  A    between atoms: _174  and  _176
REMARK   66  A    between atoms: _176  and  _177
REMARK   67  A    between atoms: _176  and  _179
REMARK   68  A    between atoms: _179  and  _180
REMARK   69  A    between atoms: _183  and  _185
REMARK   70  A    between atoms: _185  and  _186
REMARK   71  A    between atoms: _185  and  _188
REMARK   72  A    between atoms: _188  and  _189
REMARK   73  A    between atoms: _194  and  _195
REMARK   74  A    between atoms: _197  and  _199
REMARK   75  A    between atoms: _199  and  _200
REMARK   76  A    between atoms: _199  and  _202
REMARK   77  A    between atoms: _202  and  _203
REMARK   78  A    between atoms: _203  and  _204
REMARK   79  A    between atoms: _204  and  _205
REMARK   80  A    between atoms: _214  and  _216
REMARK   81  A    between atoms: _216  and  _217
REMARK   82  A    between atoms: _216  and  _219
REMARK   83  A    between atoms: _219  and  _220
REMARK   84  A    between atoms: _220  and  _221
REMARK   85  A    between atoms: _221  and  _222
REMARK   86  A    between atoms: _231  and  _233
REMARK   87  A    between atoms: _233  and  _234
REMARK   88  A    between atoms: _233  and  _236
REMARK   89  A    between atoms: _239  and  _241
REMARK   90  A    between atoms: _241  and  _242
REMARK   91  A    between atoms: _241  and  _244
REMARK   92  A    between atoms: _244  and  _245
REMARK   93  A    between atoms: _248  and  _250
REMARK   94  A    between atoms: _250  and  _251
REMARK   95  A    between atoms: _250  and  _253
REMARK   96  A    between atoms: _256  and  _258
REMARK   97  A    between atoms: _258  and  _259
REMARK   98  A    between atoms: _258  and  _261
REMARK   99  A    between atoms: _264  and  _266
REMARK  100  A    between atoms: _266  and  _267
REMARK  101  A    between atoms: _266  and  _269
REMARK  102  A    between atoms: _269  and  _270
REMARK  103  A    between atoms: _270  and  _271
REMARK                            x       y       z     vdW  Elec       q    Type
REMARK                         _______ _______ _______ _____ _____    ______ ____
ROOT
ATOM      1  O   HOH     1     -21.229 -23.957  37.983  0.00  0.00    +0.000 OA
ENDROOT
TORSDOF 0
REMARK  Name = ../refined-set-2016/4mjp/4mjp_pocket.pdb
REMARK  103 active torsions:
REMARK  status: ('A' for Active; 'I' for Inactive)
REMARK    1  A    between atoms: _1  and  _3
REMARK    2  A    between atoms: _3  and  _4
REMARK    3  A    between atoms: _3  and  _6
REMARK    4  A    between atoms: _6  and  _7
REMARK    5  A    between atoms: _10  and  _12
REMARK    6  A    between atoms: _12  and  _13
REMARK    7  A    between atoms: _12  and  _15
REMARK    8  A    between atoms: _15  and  _16
REMARK    9  A    between atoms: _16  and  _17
REMARK   10  A    between atoms: _17  and  _18
REMARK   11  A    between atoms: _27  and  _29
REMARK   12  A    between atoms: _29  and  _30
REMARK   13  A    between atoms: _29  and  _32
REMARK   14  A    between atoms: _32  and  _33
REMARK   15  A    between atoms: _38  and  _39
REMARK   16  A    between atoms: _41  and  _43
REMARK   17  A    between atoms: _43  and  _44
REMARK   18  A    between atoms: _43  and  _46
REMARK   19  A    between atoms: _46  and  _47
REMARK   20  A    between atoms: _50  and  _52
REMARK   21  A    between atoms: _52  and  _53
REMARK   22  A    between atoms: _52  and  _55
REMARK   23  A    between atoms: _58  and  _60
REMARK   24  A    between atoms: _60  and  _61
REMARK   25  A    between atoms: _64  and  _66
REMARK   26  A    between atoms: _66  and  _67
REMARK   27  A    between atoms: _66  and  _69
REMARK   28  A    between atoms: _69  and  _70
REMARK   29  A    between atoms: _73  and  _75
REMARK   30  A    between atoms: _75  and  _76
REMARK   31  A    between atoms: _75  and  _78
REMARK   32  A    between atoms: _78  and  _79
REMARK   33  A    between atoms: _82  and  _84
REMARK   34  A    between atoms: _84  and  _85
REMARK   35  A    between atoms: _87  and  _89
REMARK   36  A    between atoms: _89  and  _90
REMARK   37  A    between atoms: _89  and  _92
REMARK   38  A    between atoms: _92  and  _93
REMARK   39  A    between atoms: _98  and  _100
REMARK   40  A    between atoms: _100  and  _101
REMARK   41  A    between atoms: _100  and  _103
REMARK   42  A    between atoms: _103  and  _104
REMARK   43  A    between atoms: _104  and  _105
REMARK   44  A    between atoms: _105  and  _106
REMARK   45  A    between atoms: _115  and  _117
REMARK   46  A    between atoms: _117  and  _118
REMARK   47  A    between atoms: _117  and  _120
REMARK   48  A    between atoms: _120  and  _121
REMARK   49  A    between atoms: _124  and  _126
REMARK   50  A    between atoms: _126  and  _127
REMARK   51  A    between atoms: _130  and  _132
REMARK   52  A    between atoms: _132  and  _133
REMARK   53  A    between atoms: _132  and  _135
REMARK   54  A    between atoms: _138  and  _140
REMARK   55  A    between atoms: _140  and  _141
REMARK   56  A    between atoms: _140  and  _143
REMARK   57  A    between atoms: _143  and  _144
REMARK   58  A    between atoms: _144  and  _145
REMARK   59  A    between atoms: _145  and  _146
REMARK   60  A    between atoms: _155  and  _157
REMARK   61  A    between atoms: _157  and  _158
REMARK   62  A    between atoms: _157  and  _160
REMARK   63  A    between atoms: _160  and  _161
REMARK   64  A    between atoms: _168  and  _169
REMARK   65  A    between atoms: _174  and  _176
REMARK   66  A    between atoms: _176  and  _177
REMARK   67  A    between atoms: _176  and  _179
REMARK   68  A    between atoms: _179  and  _180
REMARK   69  A    between atoms: _183  and  _185
REMARK   70  A    between atoms: _185  and  _186
REMARK   71  A    between atoms: _185  and  _188
REMARK   72  A    between atoms: _188  and  _189
REMARK   73  A    between atoms: _194  and  _195
REMARK   74  A    between atoms: _197  and  _199
REMARK   75  A    between atoms: _199  and  _200
REMARK   76  A    between atoms: _199  and  _202
REMARK   77  A    between atoms: _202  and  _203
REMARK   78  A    between atoms: _203  and  _204
REMARK   79  A    between atoms: _204  and  _205
REMARK   80  A    between atoms: _214  and  _216
REMARK   81  A    between atoms: _216  and  _217
REMARK   82  A    between atoms: _216  and  _219
REMARK   83  A    between atoms: _219  and  _220
REMARK   84  A    between atoms: _220  and  _221
REMARK   85  A    between atoms: _221  and  _222
REMARK   86  A    between atoms: _231  and  _233
REMARK   87  A    between atoms: _233  and  _234
REMARK   88  A    between atoms: _233  and  _236
REMARK   89  A    between atoms: _239  and  _241
REMARK   90  A    between atoms: _241  and  _242
REMARK   91  A    between atoms: _241  and  _244
REMARK   92  A    between atoms: _244  and  _245
REMARK   93  A    between atoms: _248  and  _250
REMARK   94  A    between atoms: _250  and  _251
REMARK   95  A    between atoms: _250  and  _253
REMARK   96  A    between atoms: _256  and  _258
REMARK   97  A    between atoms: _258  and  _259
REMARK   98  A    between atoms: _258  and  _261
REMARK   99  A    between atoms: _264  and  _266
REMARK  100  A    between atoms: _266  and  _267
REMARK  101  A    between atoms: _266  and  _269
REMARK  102  A    between atoms: _269  and  _270
REMARK  103  A    between atoms: _270  and  _271
REMARK                            x       y       z     vdW  Elec       q    Type
REMARK                         _______ _______ _______ _____ _____    ______ ____
ROOT
ATOM      1  O   HOH     1     -25.308 -22.638  39.236  0.00  0.00    +0.000 OA
ENDROOT
TORSDOF 0
REMARK  Name = ../refined-set-2016/4mjp/4mjp_pocket.pdb
REMARK  103 active torsions:
REMARK  status: ('A' for Active; 'I' for Inactive)
REMARK    1  A    between atoms: _1  and  _3
REMARK    2  A    between atoms: _3  and  _4
REMARK    3  A    between atoms: _3  and  _6
REMARK    4  A    between atoms: _6  and  _7
REMARK    5  A    between atoms: _10  and  _12
REMARK    6  A    between atoms: _12  and  _13
REMARK    7  A    between atoms: _12  and  _15
REMARK    8  A    between atoms: _15  and  _16
REMARK    9  A    between atoms: _16  and  _17
REMARK   10  A    between atoms: _17  and  _18
REMARK   11  A    between atoms: _27  and  _29
REMARK   12  A    between atoms: _29  and  _30
REMARK   13  A    between atoms: _29  and  _32
REMARK   14  A    between atoms: _32  and  _33
REMARK   15  A    between atoms: _38  and  _39
REMARK   16  A    between atoms: _41  and  _43
REMARK   17  A    between atoms: _43  and  _44
REMARK   18  A    between atoms: _43  and  _46
REMARK   19  A    between atoms: _46  and  _47
REMARK   20  A    between atoms: _50  and  _52
REMARK   21  A    between atoms: _52  and  _53
REMARK   22  A    between atoms: _52  and  _55
REMARK   23  A    between atoms: _58  and  _60
REMARK   24  A    between atoms: _60  and  _61
REMARK   25  A    between atoms: _64  and  _66
REMARK   26  A    between atoms: _66  and  _67
REMARK   27  A    between atoms: _66  and  _69
REMARK   28  A    between atoms: _69  and  _70
REMARK   29  A    between atoms: _73  and  _75
REMARK   30  A    between atoms: _75  and  _76
REMARK   31  A    between atoms: _75  and  _78
REMARK   32  A    between atoms: _78  and  _79
REMARK   33  A    between atoms: _82  and  _84
REMARK   34  A    between atoms: _84  and  _85
REMARK   35  A    between atoms: _87  and  _89
REMARK   36  A    between atoms: _89  and  _90
REMARK   37  A    between atoms: _89  and  _92
REMARK   38  A    between atoms: _92  and  _93
REMARK   39  A    between atoms: _98  and  _100
REMARK   40  A    between atoms: _100  and  _101
REMARK   41  A    between atoms: _100  and  _103
REMARK   42  A    between atoms: _103  and  _104
REMARK   43  A    between atoms: _104  and  _105
REMARK   44  A    between atoms: _105  and  _106
REMARK   45  A    between atoms: _115  and  _117
REMARK   46  A    between atoms: _117  and  _118
REMARK   47  A    between atoms: _117  and  _120
REMARK   48  A    between atoms: _120  and  _121
REMARK   49  A    between atoms: _124  and  _126
REMARK   50  A    between atoms: _126  and  _127
REMARK   51  A    between atoms: _130  and  _132
REMARK   52  A    between atoms: _132  and  _133
REMARK   53  A    between atoms: _132  and  _135
REMARK   54  A    between atoms: _138  and  _140
REMARK   55  A    between atoms: _140  and  _141
REMARK   56  A    between atoms: _140  and  _143
REMARK   57  A    between atoms: _143  and  _144
REMARK   58  A    between atoms: _144  and  _145
REMARK   59  A    between atoms: _145  and  _146
REMARK   60  A    between atoms: _155  and  _157
REMARK   61  A    between atoms: _157  and  _158
REMARK   62  A    between atoms: _157  and  _160
REMARK   63  A    between atoms: _160  and  _161
REMARK   64  A    between atoms: _168  and  _169
REMARK   65  A    between atoms: _174  and  _176
REMARK   66  A    between atoms: _176  and  _177
REMARK   67  A    between atoms: _176  and  _179
REMARK   68  A    between atoms: _179  and  _180
REMARK   69  A    between atoms: _183  and  _185
REMARK   70  A    between atoms: _185  and  _186
REMARK   71  A    between atoms: _185  and  _188
REMARK   72  A    between atoms: _188  and  _189
REMARK   73  A    between atoms: _194  and  _195
REMARK   74  A    between atoms: _197  and  _199
REMARK   75  A    between atoms: _199  and  _200
REMARK   76  A    between atoms: _199  and  _202
REMARK   77  A    between atoms: _202  and  _203
REMARK   78  A    between atoms: _203  and  _204
REMARK   79  A    between atoms: _204  and  _205
REMARK   80  A    between atoms: _214  and  _216
REMARK   81  A    between atoms: _216  and  _217
REMARK   82  A    between atoms: _216  and  _219
REMARK   83  A    between atoms: _219  and  _220
REMARK   84  A    between atoms: _220  and  _221
REMARK   85  A    between atoms: _221  and  _222
REMARK   86  A    between atoms: _231  and  _233
REMARK   87  A    between atoms: _233  and  _234
REMARK   88  A    between atoms: _233  and  _236
REMARK   89  A    between atoms: _239  and  _241
REMARK   90  A    between atoms: _241  and  _242
REMARK   91  A    between atoms: _241  and  _244
REMARK   92  A    between atoms: _244  and  _245
REMARK   93  A    between atoms: _248  and  _250
REMARK   94  A    between atoms: _250  and  _251
REMARK   95  A    between atoms: _250  and  _253
REMARK   96  A    between atoms: _256  and  _258
REMARK   97  A    between atoms: _258  and  _259
REMARK   98  A    between atoms: _258  and  _261
REMARK   99  A    between atoms: _264  and  _266
REMARK  100  A    between atoms: _266  and  _267
REMARK  101  A    between atoms: _266  and  _269
REMARK  102  A    between atoms: _269  and  _270
REMARK  103  A    between atoms: _270  and  _271
REMARK                            x       y       z     vdW  Elec       q    Type
REMARK                         _______ _______ _______ _____ _____    ______ ____
ROOT
ATOM      1  O   HOH     1     -12.801 -13.978  51.354  0.00  0.00    +0.000 OA
ENDROOT
TORSDOF 0
REMARK  Name = ../refined-set-2016/4mjp/4mjp_pocket.pdb
REMARK  103 active torsions:
REMARK  status: ('A' for Active; 'I' for Inactive)
REMARK    1  A    between atoms: _1  and  _3
REMARK    2  A    between atoms: _3  and  _4
REMARK    3  A    between atoms: _3  and  _6
REMARK    4  A    between atoms: _6  and  _7
REMARK    5  A    between atoms: _10  and  _12
REMARK    6  A    between atoms: _12  and  _13
REMARK    7  A    between atoms: _12  and  _15
REMARK    8  A    between atoms: _15  and  _16
REMARK    9  A    between atoms: _16  and  _17
REMARK   10  A    between atoms: _17  and  _18
REMARK   11  A    between atoms: _27  and  _29
REMARK   12  A    between atoms: _29  and  _30
REMARK   13  A    between atoms: _29  and  _32
REMARK   14  A    between atoms: _32  and  _33
REMARK   15  A    between atoms: _38  and  _39
REMARK   16  A    between atoms: _41  and  _43
REMARK   17  A    between atoms: _43  and  _44
REMARK   18  A    between atoms: _43  and  _46
REMARK   19  A    between atoms: _46  and  _47
REMARK   20  A    between atoms: _50  and  _52
REMARK   21  A    between atoms: _52  and  _53
REMARK   22  A    between atoms: _52  and  _55
REMARK   23  A    between atoms: _58  and  _60
REMARK   24  A    between atoms: _60  and  _61
REMARK   25  A    between atoms: _64  and  _66
REMARK   26  A    between atoms: _66  and  _67
REMARK   27  A    between atoms: _66  and  _69
REMARK   28  A    between atoms: _69  and  _70
REMARK   29  A    between atoms: _73  and  _75
REMARK   30  A    between atoms: _75  and  _76
REMARK   31  A    between atoms: _75  and  _78
REMARK   32  A    between atoms: _78  and  _79
REMARK   33  A    between atoms: _82  and  _84
REMARK   34  A    between atoms: _84  and  _85
REMARK   35  A    between atoms: _87  and  _89
REMARK   36  A    between atoms: _89  and  _90
REMARK   37  A    between atoms: _89  and  _92
REMARK   38  A    between atoms: _92  and  _93
REMARK   39  A    between atoms: _98  and  _100
REMARK   40  A    between atoms: _100  and  _101
REMARK   41  A    between atoms: _100  and  _103
REMARK   42  A    between atoms: _103  and  _104
REMARK   43  A    between atoms: _104  and  _105
REMARK   44  A    between atoms: _105  and  _106
REMARK   45  A    between atoms: _115  and  _117
REMARK   46  A    between atoms: _117  and  _118
REMARK   47  A    between atoms: _117  and  _120
REMARK   48  A    between atoms: _120  and  _121
REMARK   49  A    between atoms: _124  and  _126
REMARK   50  A    between atoms: _126  and  _127
REMARK   51  A    between atoms: _130  and  _132
REMARK   52  A    between atoms: _132  and  _133
REMARK   53  A    between atoms: _132  and  _135
REMARK   54  A    between atoms: _138  and  _140
REMARK   55  A    between atoms: _140  and  _141
REMARK   56  A    between atoms: _140  and  _143
REMARK   57  A    between atoms: _143  and  _144
REMARK   58  A    between atoms: _144  and  _145
REMARK   59  A    between atoms: _145  and  _146
REMARK   60  A    between atoms: _155  and  _157
REMARK   61  A    between atoms: _157  and  _158
REMARK   62  A    between atoms: _157  and  _160
REMARK   63  A    between atoms: _160  and  _161
REMARK   64  A    between atoms: _168  and  _169
REMARK   65  A    between atoms: _174  and  _176
REMARK   66  A    between atoms: _176  and  _177
REMARK   67  A    between atoms: _176  and  _179
REMARK   68  A    between atoms: _179  and  _180
REMARK   69  A    between atoms: _183  and  _185
REMARK   70  A    between atoms: _185  and  _186
REMARK   71  A    between atoms: _185  and  _188
REMARK   72  A    between atoms: _188  and  _189
REMARK   73  A    between atoms: _194  and  _195
REMARK   74  A    between atoms: _197  and  _199
REMARK   75  A    between atoms: _199  and  _200
REMARK   76  A    between atoms: _199  and  _202
REMARK   77  A    between atoms: _202  and  _203
REMARK   78  A    between atoms: _203  and  _204
REMARK   79  A    between atoms: _204  and  _205
REMARK   80  A    between atoms: _214  and  _216
REMARK   81  A    between atoms: _216  and  _217
REMARK   82  A    between atoms: _216  and  _219
REMARK   83  A    between atoms: _219  and  _220
REMARK   84  A    between atoms: _220  and  _221
REMARK   85  A    between atoms: _221  and  _222
REMARK   86  A    between atoms: _231  and  _233
REMARK   87  A    between atoms: _233  and  _234
REMARK   88  A    between atoms: _233  and  _236
REMARK   89  A    between atoms: _239  and  _241
REMARK   90  A    between atoms: _241  and  _242
REMARK   91  A    between atoms: _241  and  _244
REMARK   92  A    between atoms: _244  and  _245
REMARK   93  A    between atoms: _248  and  _250
REMARK   94  A    between atoms: _250  and  _251
REMARK   95  A    between atoms: _250  and  _253
REMARK   96  A    between atoms: _256  and  _258
REMARK   97  A    between atoms: _258  and  _259
REMARK   98  A    between atoms: _258  and  _261
REMARK   99  A    between atoms: _264  and  _266
REMARK  100  A    between atoms: _266  and  _267
REMARK  101  A    between atoms: _266  and  _269
REMARK  102  A    between atoms: _269  and  _270
REMARK  103  A    between atoms: _270  and  _271
REMARK                            x       y       z     vdW  Elec       q    Type
REMARK                         _______ _______ _______ _____ _____    ______ ____
ROOT
ATOM      1  O   HOH     1     -19.259 -24.243  40.340  0.00  0.00    +0.000 OA
ENDROOT
TORSDOF 0
