REMARK  Name = ../refined-set-2016/1sgu/1sgu_pocket.pdb
REMARK  230 active torsions:
REMARK  status: ('A' for Active; 'I' for Inactive)
REMARK    1  A    between atoms: _1  and  _3
REMARK    2  A    between atoms: _3  and  _4
REMARK    3  A    between atoms: _3  and  _6
REMARK    4  A    between atoms: _6  and  _7
REMARK    5  A    between atoms: _7  and  _8
REMARK    6  A    between atoms: _8  and  _9
REMARK    7  A    between atoms: _18  and  _20
REMARK    8  A    between atoms: _20  and  _21
REMARK    9  A    between atoms: _20  and  _23
REMARK   10  A    between atoms: _23  and  _24
REMARK   11  A    between atoms: _27  and  _29
REMARK   12  A    between atoms: _29  and  _30
REMARK   13  A    between atoms: _29  and  _32
REMARK   14  A    between atoms: _32  and  _33
REMARK   15  A    between atoms: _36  and  _38
REMARK   16  A    between atoms: _38  and  _39
REMARK   17  A    between atoms: _38  and  _41
REMARK   18  A    between atoms: _41  and  _42
REMARK   19  A    between atoms: _45  and  _47
REMARK   20  A    between atoms: _47  and  _48
REMARK   21  A    between atoms: _47  and  _50
REMARK   22  A    between atoms: _50  and  _51
REMARK   23  A    between atoms: _54  and  _56
REMARK   24  A    between atoms: _56  and  _57
REMARK   25  A    between atoms: _59  and  _61
REMARK   26  A    between atoms: _61  and  _62
REMARK   27  A    between atoms: _65  and  _67
REMARK   28  A    between atoms: _67  and  _68
REMARK   29  A    between atoms: _67  and  _70
REMARK   30  A    between atoms: _70  and  _71
REMARK   31  A    between atoms: _74  and  _76
REMARK   32  A    between atoms: _76  and  _77
REMARK   33  A    between atoms: _76  and  _79
REMARK   34  A    between atoms: _79  and  _80
REMARK   35  A    between atoms: _83  and  _85
REMARK   36  A    between atoms: _85  and  _86
REMARK   37  A    between atoms: _85  and  _88
REMARK   38  A    between atoms: _88  and  _89
REMARK   39  A    between atoms: _92  and  _94
REMARK   40  A    between atoms: _94  and  _95
REMARK   41  A    between atoms: _94  and  _97
REMARK   42  A    between atoms: _97  and  _98
REMARK   43  A    between atoms: _101  and  _103
REMARK   44  A    between atoms: _103  and  _104
REMARK   45  A    between atoms: _103  and  _106
REMARK   46  A    between atoms: _106  and  _107
REMARK   47  A    between atoms: _113  and  _115
REMARK   48  A    between atoms: _115  and  _116
REMARK   49  A    between atoms: _115  and  _118
REMARK   50  A    between atoms: _118  and  _119
REMARK   51  A    between atoms: _119  and  _120
REMARK   52  A    between atoms: _120  and  _121
REMARK   53  A    between atoms: _121  and  _122
REMARK   54  A    between atoms: _126  and  _128
REMARK   55  A    between atoms: _128  and  _129
REMARK   56  A    between atoms: _128  and  _131
REMARK   57  A    between atoms: _131  and  _132
REMARK   58  A    between atoms: _132  and  _133
REMARK   59  A    between atoms: _135  and  _137
REMARK   60  A    between atoms: _137  and  _138
REMARK   61  A    between atoms: _137  and  _140
REMARK   62  A    between atoms: _140  and  _141
REMARK   63  A    between atoms: _144  and  _146
REMARK   64  A    between atoms: _146  and  _147
REMARK   65  A    between atoms: _149  and  _151
REMARK   66  A    between atoms: _151  and  _152
REMARK   67  A    between atoms: _154  and  _156
REMARK   68  A    between atoms: _156  and  _157
REMARK   69  A    between atoms: _156  and  _159
REMARK   70  A    between atoms: _159  and  _160
REMARK   71  A    between atoms: _163  and  _165
REMARK   72  A    between atoms: _165  and  _166
REMARK   73  A    between atoms: _168  and  _170
REMARK   74  A    between atoms: _170  and  _171
REMARK   75  A    between atoms: _173  and  _175
REMARK   76  A    between atoms: _175  and  _176
REMARK   77  A    between atoms: _175  and  _178
REMARK   78  A    between atoms: _178  and  _179
REMARK   79  A    between atoms: _185  and  _187
REMARK   80  A    between atoms: _187  and  _188
REMARK   81  A    between atoms: _187  and  _190
REMARK   82  A    between atoms: _193  and  _195
REMARK   83  A    between atoms: _195  and  _196
REMARK   84  A    between atoms: _195  and  _198
REMARK   85  A    between atoms: _201  and  _203
REMARK   86  A    between atoms: _203  and  _204
REMARK   87  A    between atoms: _203  and  _206
REMARK   88  A    between atoms: _206  and  _207
REMARK   89  A    between atoms: _211  and  _212
REMARK   90  A    between atoms: _217  and  _219
REMARK   91  A    between atoms: _219  and  _220
REMARK   92  A    between atoms: _219  and  _222
REMARK   93  A    between atoms: _222  and  _223
REMARK   94  A    between atoms: _227  and  _228
REMARK   95  A    between atoms: _233  and  _235
REMARK   96  A    between atoms: _235  and  _236
REMARK   97  A    between atoms: _239  and  _241
REMARK   98  A    between atoms: _241  and  _242
REMARK   99  A    between atoms: _241  and  _244
REMARK  100  A    between atoms: _244  and  _245
REMARK  101  A    between atoms: _250  and  _252
REMARK  102  A    between atoms: _252  and  _253
REMARK  103  A    between atoms: _252  and  _255
REMARK  104  A    between atoms: _258  and  _260
REMARK  105  A    between atoms: _260  and  _261
REMARK  106  A    between atoms: _260  and  _263
REMARK  107  A    between atoms: _263  and  _264
REMARK  108  A    between atoms: _267  and  _269
REMARK  109  A    between atoms: _269  and  _270
REMARK  110  A    between atoms: _272  and  _274
REMARK  111  A    between atoms: _274  and  _275
REMARK  112  A    between atoms: _274  and  _277
REMARK  113  A    between atoms: _277  and  _278
REMARK  114  A    between atoms: _278  and  _279
REMARK  115  A    between atoms: _279  and  _280
REMARK  116  A    between atoms: _289  and  _291
REMARK  117  A    between atoms: _291  and  _292
REMARK  118  A    between atoms: _291  and  _294
REMARK  119  A    between atoms: _294  and  _295
REMARK  120  A    between atoms: _300  and  _302
REMARK  121  A    between atoms: _302  and  _303
REMARK  122  A    between atoms: _302  and  _305
REMARK  123  A    between atoms: _305  and  _306
REMARK  124  A    between atoms: _306  and  _307
REMARK  125  A    between atoms: _307  and  _308
REMARK  126  A    between atoms: _317  and  _319
REMARK  127  A    between atoms: _319  and  _320
REMARK  128  A    between atoms: _319  and  _322
REMARK  129  A    between atoms: _322  and  _323
REMARK  130  A    between atoms: _326  and  _328
REMARK  131  A    between atoms: _328  and  _329
REMARK  132  A    between atoms: _328  and  _331
REMARK  133  A    between atoms: _331  and  _332
REMARK  134  A    between atoms: _335  and  _337
REMARK  135  A    between atoms: _337  and  _338
REMARK  136  A    between atoms: _337  and  _340
REMARK  137  A    between atoms: _340  and  _341
REMARK  138  A    between atoms: _344  and  _346
REMARK  139  A    between atoms: _346  and  _347
REMARK  140  A    between atoms: _346  and  _349
REMARK  141  A    between atoms: _349  and  _350
REMARK  142  A    between atoms: _353  and  _355
REMARK  143  A    between atoms: _355  and  _356
REMARK  144  A    between atoms: _358  and  _360
REMARK  145  A    between atoms: _360  and  _361
REMARK  146  A    between atoms: _364  and  _366
REMARK  147  A    between atoms: _366  and  _367
REMARK  148  A    between atoms: _366  and  _369
REMARK  149  A    between atoms: _369  and  _370
REMARK  150  A    between atoms: _373  and  _375
REMARK  151  A    between atoms: _375  and  _376
REMARK  152  A    between atoms: _375  and  _378
REMARK  153  A    between atoms: _378  and  _379
REMARK  154  A    between atoms: _382  and  _384
REMARK  155  A    between atoms: _384  and  _385
REMARK  156  A    between atoms: _384  and  _387
REMARK  157  A    between atoms: _387  and  _388
REMARK  158  A    between atoms: _391  and  _393
REMARK  159  A    between atoms: _393  and  _394
REMARK  160  A    between atoms: _393  and  _396
REMARK  161  A    between atoms: _396  and  _397
REMARK  162  A    between atoms: _400  and  _402
REMARK  163  A    between atoms: _402  and  _403
REMARK  164  A    between atoms: _402  and  _405
REMARK  165  A    between atoms: _405  and  _406
REMARK  166  A    between atoms: _412  and  _414
REMARK  167  A    between atoms: _414  and  _415
REMARK  168  A    between atoms: _414  and  _417
REMARK  169  A    between atoms: _417  and  _418
REMARK  170  A    between atoms: _418  and  _419
REMARK  171  A    between atoms: _419  and  _420
REMARK  172  A    between atoms: _420  and  _421
REMARK  173  A    between atoms: _425  and  _427
REMARK  174  A    between atoms: _427  and  _428
REMARK  175  A    between atoms: _427  and  _430
REMARK  176  A    between atoms: _430  and  _431
REMARK  177  A    between atoms: _431  and  _432
REMARK  178  A    between atoms: _434  and  _436
REMARK  179  A    between atoms: _436  and  _437
REMARK  180  A    between atoms: _436  and  _439
REMARK  181  A    between atoms: _439  and  _440
REMARK  182  A    between atoms: _443  and  _445
REMARK  183  A    between atoms: _445  and  _446
REMARK  184  A    between atoms: _448  and  _450
REMARK  185  A    between atoms: _450  and  _451
REMARK  186  A    between atoms: _453  and  _455
REMARK  187  A    between atoms: _455  and  _456
REMARK  188  A    between atoms: _455  and  _458
REMARK  189  A    between atoms: _458  and  _459
REMARK  190  A    between atoms: _462  and  _464
REMARK  191  A    between atoms: _464  and  _465
REMARK  192  A    between atoms: _467  and  _469
REMARK  193  A    between atoms: _469  and  _470
REMARK  194  A    between atoms: _472  and  _474
REMARK  195  A    between atoms: _474  and  _475
REMARK  196  A    between atoms: _474  and  _477
REMARK  197  A    between atoms: _480  and  _482
REMARK  198  A    between atoms: _482  and  _483
REMARK  199  A    between atoms: _482  and  _485
REMARK  200  A    between atoms: _485  and  _486
REMARK  201  A    between atoms: _489  and  _491
REMARK  202  A    between atoms: _491  and  _492
REMARK  203  A    between atoms: _491  and  _494
REMARK  204  A    between atoms: _494  and  _495
REMARK  205  A    between atoms: _499  and  _500
REMARK  206  A    between atoms: _505  and  _507
REMARK  207  A    between atoms: _507  and  _508
REMARK  208  A    between atoms: _511  and  _513
REMARK  209  A    between atoms: _513  and  _514
REMARK  210  A    between atoms: _513  and  _516
REMARK  211  A    between atoms: _516  and  _517
REMARK  212  A    between atoms: _522  and  _524
REMARK  213  A    between atoms: _524  and  _525
REMARK  214  A    between atoms: _524  and  _527
REMARK  215  A    between atoms: _530  and  _532
REMARK  216  A    between atoms: _532  and  _533
REMARK  217  A    between atoms: _532  and  _535
REMARK  218  A    between atoms: _535  and  _536
REMARK  219  A    between atoms: _539  and  _541
REMARK  220  A    between atoms: _541  and  _542
REMARK  221  A    between atoms: _544  and  _546
REMARK  222  A    between atoms: _546  and  _547
REMARK  223  A    between atoms: _546  and  _549
REMARK  224  A    between atoms: _549  and  _550
REMARK  225  A    between atoms: _550  and  _551
REMARK  226  A    between atoms: _551  and  _552
REMARK  227  A    between atoms: _561  and  _563
REMARK  228  A    between atoms: _563  and  _564
REMARK  229  A    between atoms: _563  and  _566
REMARK  230  A    between atoms: _566  and  _567
REMARK                            x       y       z     vdW  Elec       q    Type
REMARK                         _______ _______ _______ _____ _____    ______ ____
ROOT
ATOM      1  NE  ARG A   1      23.615 -10.961   5.124  0.00  0.00    -0.265 N 
ATOM      2  CZ  ARG A   1      23.178 -12.047   5.761  0.00  0.00    +0.342 C 
ATOM      3  NH2 ARG A   1      22.340 -11.936   6.788  0.00  0.00    -0.292 N 
ATOM      4 HH21 ARG A   1      22.004 -12.789   7.279  0.00  0.00    +0.255 HD
ATOM      5 HH22 ARG A   1      22.021 -10.996   7.100  0.00  0.00    +0.255 HD
ATOM      6  NH1 ARG A   1      23.582 -13.247   5.370  0.00  0.00    -0.292 N 
ATOM      7 HH11 ARG A   1      23.243 -14.097   5.865  0.00  0.00    +0.255 HD
ATOM      8 HH12 ARG A   1      24.238 -13.339   4.568  0.00  0.00    +0.255 HD
ATOM      9  HE  ARG A   1      24.270 -11.098   4.328  0.00  0.00    +0.259 HD
ENDROOT
BRANCH   1  10
ATOM     10  CD  ARG A   1      23.237  -9.590   5.466  0.00  0.00    +0.174 C 
BRANCH  10  11
ATOM     11  CG  ARG A   1      24.366  -8.632   5.150  0.00  0.00    +0.045 C 
BRANCH  11  12
ATOM     12  CB  ARG A   1      25.580  -9.014   5.986  0.00  0.00    +0.029 C 
BRANCH  12  13
ATOM     13  CA  ARG A   1      26.887  -8.308   5.611  0.00  0.00    +0.133 C 
BRANCH  13  14
ATOM     14  N   ARG A   1      27.373  -8.754   4.308  0.00  0.00    -0.239 NA
ATOM     15  H   ARG A   1      26.800  -9.419   3.750  0.00  0.00    +0.142 HD
ENDBRANCH  13  14
BRANCH  13  16
ATOM     16  C   ARG A   1      27.938  -8.640   6.658  0.00  0.00    +0.224 C 
ATOM     17  O   ARG A   1      28.497  -9.741   6.662  0.00  0.00    -0.287 OA
ENDBRANCH  13  16
ENDBRANCH  12  13
ENDBRANCH  11  12
ENDBRANCH  10  11
ENDBRANCH   1  10
TORSDOF 6
REMARK  Name = ../refined-set-2016/1sgu/1sgu_pocket.pdb
REMARK  230 active torsions:
REMARK  status: ('A' for Active; 'I' for Inactive)
REMARK    1  A    between atoms: _1  and  _3
REMARK    2  A    between atoms: _3  and  _4
REMARK    3  A    between atoms: _3  and  _6
REMARK    4  A    between atoms: _6  and  _7
REMARK    5  A    between atoms: _7  and  _8
REMARK    6  A    between atoms: _8  and  _9
REMARK    7  A    between atoms: _18  and  _20
REMARK    8  A    between atoms: _20  and  _21
REMARK    9  A    between atoms: _20  and  _23
REMARK   10  A    between atoms: _23  and  _24
REMARK   11  A    between atoms: _27  and  _29
REMARK   12  A    between atoms: _29  and  _30
REMARK   13  A    between atoms: _29  and  _32
REMARK   14  A    between atoms: _32  and  _33
REMARK   15  A    between atoms: _36  and  _38
REMARK   16  A    between atoms: _38  and  _39
REMARK   17  A    between atoms: _38  and  _41
REMARK   18  A    between atoms: _41  and  _42
REMARK   19  A    between atoms: _45  and  _47
REMARK   20  A    between atoms: _47  and  _48
REMARK   21  A    between atoms: _47  and  _50
REMARK   22  A    between atoms: _50  and  _51
REMARK   23  A    between atoms: _54  and  _56
REMARK   24  A    between atoms: _56  and  _57
REMARK   25  A    between atoms: _59  and  _61
REMARK   26  A    between atoms: _61  and  _62
REMARK   27  A    between atoms: _65  and  _67
REMARK   28  A    between atoms: _67  and  _68
REMARK   29  A    between atoms: _67  and  _70
REMARK   30  A    between atoms: _70  and  _71
REMARK   31  A    between atoms: _74  and  _76
REMARK   32  A    between atoms: _76  and  _77
REMARK   33  A    between atoms: _76  and  _79
REMARK   34  A    between atoms: _79  and  _80
REMARK   35  A    between atoms: _83  and  _85
REMARK   36  A    between atoms: _85  and  _86
REMARK   37  A    between atoms: _85  and  _88
REMARK   38  A    between atoms: _88  and  _89
REMARK   39  A    between atoms: _92  and  _94
REMARK   40  A    between atoms: _94  and  _95
REMARK   41  A    between atoms: _94  and  _97
REMARK   42  A    between atoms: _97  and  _98
REMARK   43  A    between atoms: _101  and  _103
REMARK   44  A    between atoms: _103  and  _104
REMARK   45  A    between atoms: _103  and  _106
REMARK   46  A    between atoms: _106  and  _107
REMARK   47  A    between atoms: _113  and  _115
REMARK   48  A    between atoms: _115  and  _116
REMARK   49  A    between atoms: _115  and  _118
REMARK   50  A    between atoms: _118  and  _119
REMARK   51  A    between atoms: _119  and  _120
REMARK   52  A    between atoms: _120  and  _121
REMARK   53  A    between atoms: _121  and  _122
REMARK   54  A    between atoms: _126  and  _128
REMARK   55  A    between atoms: _128  and  _129
REMARK   56  A    between atoms: _128  and  _131
REMARK   57  A    between atoms: _131  and  _132
REMARK   58  A    between atoms: _132  and  _133
REMARK   59  A    between atoms: _135  and  _137
REMARK   60  A    between atoms: _137  and  _138
REMARK   61  A    between atoms: _137  and  _140
REMARK   62  A    between atoms: _140  and  _141
REMARK   63  A    between atoms: _144  and  _146
REMARK   64  A    between atoms: _146  and  _147
REMARK   65  A    between atoms: _149  and  _151
REMARK   66  A    between atoms: _151  and  _152
REMARK   67  A    between atoms: _154  and  _156
REMARK   68  A    between atoms: _156  and  _157
REMARK   69  A    between atoms: _156  and  _159
REMARK   70  A    between atoms: _159  and  _160
REMARK   71  A    between atoms: _163  and  _165
REMARK   72  A    between atoms: _165  and  _166
REMARK   73  A    between atoms: _168  and  _170
REMARK   74  A    between atoms: _170  and  _171
REMARK   75  A    between atoms: _173  and  _175
REMARK   76  A    between atoms: _175  and  _176
REMARK   77  A    between atoms: _175  and  _178
REMARK   78  A    between atoms: _178  and  _179
REMARK   79  A    between atoms: _185  and  _187
REMARK   80  A    between atoms: _187  and  _188
REMARK   81  A    between atoms: _187  and  _190
REMARK   82  A    between atoms: _193  and  _195
REMARK   83  A    between atoms: _195  and  _196
REMARK   84  A    between atoms: _195  and  _198
REMARK   85  A    between atoms: _201  and  _203
REMARK   86  A    between atoms: _203  and  _204
REMARK   87  A    between atoms: _203  and  _206
REMARK   88  A    between atoms: _206  and  _207
REMARK   89  A    between atoms: _211  and  _212
REMARK   90  A    between atoms: _217  and  _219
REMARK   91  A    between atoms: _219  and  _220
REMARK   92  A    between atoms: _219  and  _222
REMARK   93  A    between atoms: _222  and  _223
REMARK   94  A    between atoms: _227  and  _228
REMARK   95  A    between atoms: _233  and  _235
REMARK   96  A    between atoms: _235  and  _236
REMARK   97  A    between atoms: _239  and  _241
REMARK   98  A    between atoms: _241  and  _242
REMARK   99  A    between atoms: _241  and  _244
REMARK  100  A    between atoms: _244  and  _245
REMARK  101  A    between atoms: _250  and  _252
REMARK  102  A    between atoms: _252  and  _253
REMARK  103  A    between atoms: _252  and  _255
REMARK  104  A    between atoms: _258  and  _260
REMARK  105  A    between atoms: _260  and  _261
REMARK  106  A    between atoms: _260  and  _263
REMARK  107  A    between atoms: _263  and  _264
REMARK  108  A    between atoms: _267  and  _269
REMARK  109  A    between atoms: _269  and  _270
REMARK  110  A    between atoms: _272  and  _274
REMARK  111  A    between atoms: _274  and  _275
REMARK  112  A    between atoms: _274  and  _277
REMARK  113  A    between atoms: _277  and  _278
REMARK  114  A    between atoms: _278  and  _279
REMARK  115  A    between atoms: _279  and  _280
REMARK  116  A    between atoms: _289  and  _291
REMARK  117  A    between atoms: _291  and  _292
REMARK  118  A    between atoms: _291  and  _294
REMARK  119  A    between atoms: _294  and  _295
REMARK  120  A    between atoms: _300  and  _302
REMARK  121  A    between atoms: _302  and  _303
REMARK  122  A    between atoms: _302  and  _305
REMARK  123  A    between atoms: _305  and  _306
REMARK  124  A    between atoms: _306  and  _307
REMARK  125  A    between atoms: _307  and  _308
REMARK  126  A    between atoms: _317  and  _319
REMARK  127  A    between atoms: _319  and  _320
REMARK  128  A    between atoms: _319  and  _322
REMARK  129  A    between atoms: _322  and  _323
REMARK  130  A    between atoms: _326  and  _328
REMARK  131  A    between atoms: _328  and  _329
REMARK  132  A    between atoms: _328  and  _331
REMARK  133  A    between atoms: _331  and  _332
REMARK  134  A    between atoms: _335  and  _337
REMARK  135  A    between atoms: _337  and  _338
REMARK  136  A    between atoms: _337  and  _340
REMARK  137  A    between atoms: _340  and  _341
REMARK  138  A    between atoms: _344  and  _346
REMARK  139  A    between atoms: _346  and  _347
REMARK  140  A    between atoms: _346  and  _349
REMARK  141  A    between atoms: _349  and  _350
REMARK  142  A    between atoms: _353  and  _355
REMARK  143  A    between atoms: _355  and  _356
REMARK  144  A    between atoms: _358  and  _360
REMARK  145  A    between atoms: _360  and  _361
REMARK  146  A    between atoms: _364  and  _366
REMARK  147  A    between atoms: _366  and  _367
REMARK  148  A    between atoms: _366  and  _369
REMARK  149  A    between atoms: _369  and  _370
REMARK  150  A    between atoms: _373  and  _375
REMARK  151  A    between atoms: _375  and  _376
REMARK  152  A    between atoms: _375  and  _378
REMARK  153  A    between atoms: _378  and  _379
REMARK  154  A    between atoms: _382  and  _384
REMARK  155  A    between atoms: _384  and  _385
REMARK  156  A    between atoms: _384  and  _387
REMARK  157  A    between atoms: _387  and  _388
REMARK  158  A    between atoms: _391  and  _393
REMARK  159  A    between atoms: _393  and  _394
REMARK  160  A    between atoms: _393  and  _396
REMARK  161  A    between atoms: _396  and  _397
REMARK  162  A    between atoms: _400  and  _402
REMARK  163  A    between atoms: _402  and  _403
REMARK  164  A    between atoms: _402  and  _405
REMARK  165  A    between atoms: _405  and  _406
REMARK  166  A    between atoms: _412  and  _414
REMARK  167  A    between atoms: _414  and  _415
REMARK  168  A    between atoms: _414  and  _417
REMARK  169  A    between atoms: _417  and  _418
REMARK  170  A    between atoms: _418  and  _419
REMARK  171  A    between atoms: _419  and  _420
REMARK  172  A    between atoms: _420  and  _421
REMARK  173  A    between atoms: _425  and  _427
REMARK  174  A    between atoms: _427  and  _428
REMARK  175  A    between atoms: _427  and  _430
REMARK  176  A    between atoms: _430  and  _431
REMARK  177  A    between atoms: _431  and  _432
REMARK  178  A    between atoms: _434  and  _436
REMARK  179  A    between atoms: _436  and  _437
REMARK  180  A    between atoms: _436  and  _439
REMARK  181  A    between atoms: _439  and  _440
REMARK  182  A    between atoms: _443  and  _445
REMARK  183  A    between atoms: _445  and  _446
REMARK  184  A    between atoms: _448  and  _450
REMARK  185  A    between atoms: _450  and  _451
REMARK  186  A    between atoms: _453  and  _455
REMARK  187  A    between atoms: _455  and  _456
REMARK  188  A    between atoms: _455  and  _458
REMARK  189  A    between atoms: _458  and  _459
REMARK  190  A    between atoms: _462  and  _464
REMARK  191  A    between atoms: _464  and  _465
REMARK  192  A    between atoms: _467  and  _469
REMARK  193  A    between atoms: _469  and  _470
REMARK  194  A    between atoms: _472  and  _474
REMARK  195  A    between atoms: _474  and  _475
REMARK  196  A    between atoms: _474  and  _477
REMARK  197  A    between atoms: _480  and  _482
REMARK  198  A    between atoms: _482  and  _483
REMARK  199  A    between atoms: _482  and  _485
REMARK  200  A    between atoms: _485  and  _486
REMARK  201  A    between atoms: _489  and  _491
REMARK  202  A    between atoms: _491  and  _492
REMARK  203  A    between atoms: _491  and  _494
REMARK  204  A    between atoms: _494  and  _495
REMARK  205  A    between atoms: _499  and  _500
REMARK  206  A    between atoms: _505  and  _507
REMARK  207  A    between atoms: _507  and  _508
REMARK  208  A    between atoms: _511  and  _513
REMARK  209  A    between atoms: _513  and  _514
REMARK  210  A    between atoms: _513  and  _516
REMARK  211  A    between atoms: _516  and  _517
REMARK  212  A    between atoms: _522  and  _524
REMARK  213  A    between atoms: _524  and  _525
REMARK  214  A    between atoms: _524  and  _527
REMARK  215  A    between atoms: _530  and  _532
REMARK  216  A    between atoms: _532  and  _533
REMARK  217  A    between atoms: _532  and  _535
REMARK  218  A    between atoms: _535  and  _536
REMARK  219  A    between atoms: _539  and  _541
REMARK  220  A    between atoms: _541  and  _542
REMARK  221  A    between atoms: _544  and  _546
REMARK  222  A    between atoms: _546  and  _547
REMARK  223  A    between atoms: _546  and  _549
REMARK  224  A    between atoms: _549  and  _550
REMARK  225  A    between atoms: _550  and  _551
REMARK  226  A    between atoms: _551  and  _552
REMARK  227  A    between atoms: _561  and  _563
REMARK  228  A    between atoms: _563  and  _564
REMARK  229  A    between atoms: _563  and  _566
REMARK  230  A    between atoms: _566  and  _567
REMARK                            x       y       z     vdW  Elec       q    Type
REMARK                         _______ _______ _______ _____ _____    ______ ____
ROOT
ATOM      1  C   ALA A   6      22.907   1.686  16.694  0.00  0.00    +0.241 C 
ATOM      2  N   ASP A   7      22.144   2.469  17.454  0.00  0.00    -0.297 N 
ATOM      3  H   ASP A   7      21.194   2.739  17.128  0.00  0.00    +0.150 HD
ATOM      4  O   ALA A   6      24.041   1.351  17.018  0.00  0.00    -0.273 OA
ENDROOT
BRANCH   1   5
ATOM      5  CA  ALA A   6      22.313   1.198  15.384  0.00  0.00    +0.149 C 
ATOM      6  CB  ALA A   6      22.051  -0.310  15.472  0.00  0.00    +0.031 C 
BRANCH   5   8
ATOM      7  C   GLY A   5      22.941   2.471  13.414  0.00  0.00    +0.243 C 
ATOM      8  N   ALA A   6      23.194   1.480  14.258  0.00  0.00    -0.297 N 
ATOM      9  H   ALA A   6      24.039   0.892  14.113  0.00  0.00    +0.150 HD
ATOM     10  O   GLY A   5      21.977   3.218  13.543  0.00  0.00    -0.273 OA
BRANCH   7  11
ATOM     11  CA  GLY A   5      23.917   2.645  12.262  0.00  0.00    +0.176 C 
BRANCH  11  14
ATOM     12  C   THR A   4      26.130   2.072  13.045  0.00  0.00    +0.243 C 
ATOM     13  O   THR A   4      26.218   3.130  13.665  0.00  0.00    -0.273 OA
ATOM     14  N   GLY A   5      25.050   1.735  12.345  0.00  0.00    -0.295 N 
ATOM     15  H   GLY A   5      25.015   0.818  11.855  0.00  0.00    +0.150 HD
BRANCH  12  16
ATOM     16  CA  THR A   4      27.280   1.071  13.071  0.00  0.00    +0.176 C 
BRANCH  16  19
ATOM     17  C   ASP A   3      26.046  -1.021  13.357  0.00  0.00    +0.241 C 
ATOM     18  O   ASP A   3      25.502  -0.637  14.392  0.00  0.00    -0.273 OA
ATOM     19  N   THR A   4      26.894  -0.268  12.647  0.00  0.00    -0.295 N 
ATOM     20  H   THR A   4      27.290  -0.651  11.765  0.00  0.00    +0.150 HD
BRANCH  17  21
ATOM     21  CA  ASP A   3      25.739  -2.404  12.798  0.00  0.00    +0.160 C 
BRANCH  21  23
ATOM     22  C   LEU A   2      27.321  -4.247  12.697  0.00  0.00    +0.241 C 
ATOM     23  N   ASP A   3      26.483  -3.500  13.400  0.00  0.00    -0.297 N 
ATOM     24  H   ASP A   3      26.353  -3.703  14.412  0.00  0.00    +0.150 HD
ATOM     25  O   LEU A   2      27.608  -3.979  11.526  0.00  0.00    -0.273 OA
BRANCH  22  26
ATOM     26  CA  LEU A   2      27.924  -5.445  13.365  0.00  0.00    +0.149 C 
BRANCH  26  29
ATOM     27  C   LEU A   1      25.918  -6.782  13.077  0.00  0.00    +0.238 C 
ATOM     28  O   LEU A   1      25.318  -6.168  13.951  0.00  0.00    -0.274 OA
ATOM     29  N   LEU A   2      27.199  -6.545  12.752  0.00  0.00    -0.297 N 
ATOM     30  H   LEU A   2      27.676  -7.153  12.056  0.00  0.00    +0.150 HD
BRANCH  27  31
ATOM     31  CA  LEU A   1      25.197  -7.890  12.296  0.00  0.00    +0.145 C 
BRANCH  31  32
ATOM     32  N   LEU A   1      24.497  -8.792  13.210  0.00  0.00    -0.238 NA
ATOM     33  H   LEU A   1      23.556  -8.532  13.568  0.00  0.00    +0.142 HD
ENDBRANCH  31  32
BRANCH  31  34
ATOM     34  CB  LEU A   1      24.181  -7.248  11.340  0.00  0.00    +0.026 C 
BRANCH  34  35
ATOM     35  CG  LEU A   1      24.466  -7.011   9.853  0.00  0.00    +0.002 C 
ATOM     36  CD2 LEU A   1      23.435  -6.025   9.298  0.00  0.00    +0.000 C 
ATOM     37  CD1 LEU A   1      24.356  -8.315   9.094  0.00  0.00    +0.000 C 
ENDBRANCH  34  35
ENDBRANCH  31  34
ENDBRANCH  27  31
ENDBRANCH  26  29
BRANCH  26  38
ATOM     38  CB  LEU A   2      29.425  -5.556  13.156  0.00  0.00    +0.029 C 
BRANCH  38  39
ATOM     39  CG  LEU A   2      30.093  -6.713  13.901  0.00  0.00    +0.002 C 
ATOM     40  CD2 LEU A   2      29.941  -6.555  15.396  0.00  0.00    +0.000 C 
ATOM     41  CD1 LEU A   2      31.564  -6.810  13.510  0.00  0.00    +0.000 C 
ENDBRANCH  38  39
ENDBRANCH  26  38
ENDBRANCH  22  26
ENDBRANCH  21  23
BRANCH  21  42
ATOM     42  CB  ASP A   3      24.245  -2.728  12.969  0.00  0.00    +0.143 C 
BRANCH  42  43
ATOM     43  CG  ASP A   3      23.342  -1.750  12.259  0.00  0.00    +0.367 C 
ATOM     44  OD2 ASP A   3      22.128  -1.991  12.235  0.00  0.00    -0.246 OA
ATOM     45  OD1 ASP A   3      23.842  -0.746  11.724  0.00  0.00    -0.246 OA
ENDBRANCH  42  43
ENDBRANCH  21  42
ENDBRANCH  17  21
ENDBRANCH  16  19
BRANCH  16  46
ATOM     46  CB  THR A   4      28.430   1.627  12.208  0.00  0.00    +0.137 C 
ATOM     47  CG2 THR A   4      29.666   0.740  12.345  0.00  0.00    +0.034 C 
BRANCH  46  48
ATOM     48  OG1 THR A   4      28.027   1.670  10.827  0.00  0.00    -0.382 OA
ATOM     49  HG1 THR A   4      27.234   2.256  10.734  0.00  0.00    +0.210 HD
ENDBRANCH  46  48
ENDBRANCH  16  46
ENDBRANCH  12  16
ENDBRANCH  11  14
ENDBRANCH   7  11
ENDBRANCH   5   8
ENDBRANCH   1   5
BRANCH   2  50
ATOM     50  CA  ASP A   7      22.635   2.953  18.749  0.00  0.00    +0.160 C 
BRANCH  50  51
ATOM     51  C   ASP A   7      22.593   1.818  19.769  0.00  0.00    +0.241 C 
ATOM     52  O   ASP A   7      23.440   1.738  20.673  0.00  0.00    -0.273 OA
ATOM     53  N   ASP A   8      21.592   0.949  19.637  0.00  0.00    -0.297 N 
ATOM     54  H   ASP A   8      20.913   1.067  18.858  0.00  0.00    +0.150 HD
BRANCH  53  55
ATOM     55  CA  ASP A   8      21.431  -0.164  20.564  0.00  0.00    +0.160 C 
BRANCH  55  56
ATOM     56  C   ASP A   8      21.570  -1.551  19.925  0.00  0.00    +0.241 C 
ATOM     57  N   THR A   9      21.571  -2.570  20.782  0.00  0.00    -0.295 N 
ATOM     58  H   THR A   9      21.468  -2.358  21.795  0.00  0.00    +0.150 HD
ATOM     59  O   ASP A   8      21.673  -1.691  18.703  0.00  0.00    -0.273 OA
BRANCH  57  60
ATOM     60  CA  THR A   9      21.709  -3.971  20.381  0.00  0.00    +0.176 C 
BRANCH  60  61
ATOM     61  C   THR A   9      20.351  -4.654  20.554  0.00  0.00    +0.243 C 
ATOM     62  O   THR A   9      19.722  -4.514  21.602  0.00  0.00    -0.273 OA
ATOM     63  N   ILE A  10      19.902  -5.380  19.536  0.00  0.00    -0.297 N 
ATOM     64  H   ILE A  10      20.475  -5.463  18.672  0.00  0.00    +0.150 HD
BRANCH  63  65
ATOM     65  CA  ILE A  10      18.616  -6.062  19.614  0.00  0.00    +0.149 C 
BRANCH  65  66
ATOM     66  C   ILE A  10      18.620  -7.454  19.008  0.00  0.00    +0.241 C 
ATOM     67  N   PHE A  11      17.945  -8.369  19.695  0.00  0.00    -0.298 N 
ATOM     68  H   PHE A  11      17.482  -8.089  20.583  0.00  0.00    +0.150 HD
ATOM     69  O   ILE A  10      19.223  -7.693  17.959  0.00  0.00    -0.273 OA
BRANCH  67  70
ATOM     70  CA  PHE A  11      17.831  -9.742  19.252  0.00  0.00    +0.141 C 
BRANCH  70  71
ATOM     71  C   PHE A  11      16.394 -10.163  19.189  0.00  0.00    +0.227 C 
ATOM     72  O   PHE A  11      15.561  -9.741  19.989  0.00  0.00    -0.286 OA
ENDBRANCH  70  71
BRANCH  70  73
ATOM     73  CB  PHE A  11      18.528 -10.720  20.205  0.00  0.00    +0.054 C 
BRANCH  73  74
ATOM     74  CG  PHE A  11      20.013 -10.718  20.086  0.00  0.00    -0.020 A 
ATOM     75  CD2 PHE A  11      20.773  -9.753  20.729  0.00  0.00    -0.004 A 
ATOM     76  CE2 PHE A  11      22.156  -9.733  20.591  0.00  0.00    -0.000 A 
ATOM     77  CZ  PHE A  11      22.786 -10.693  19.797  0.00  0.00    -0.000 A 
ATOM     78  CE1 PHE A  11      22.036 -11.654  19.154  0.00  0.00    -0.000 A 
ATOM     79  CD1 PHE A  11      20.652 -11.666  19.300  0.00  0.00    -0.004 A 
ENDBRANCH  73  74
ENDBRANCH  70  73
ENDBRANCH  67  70
ENDBRANCH  65  66
BRANCH  65  80
ATOM     80  CB  ILE A  10      17.495  -5.245  18.943  0.00  0.00    +0.027 C 
ATOM     81  CG2 ILE A  10      17.784  -5.070  17.454  0.00  0.00    +0.002 C 
BRANCH  80  82
ATOM     82  CG1 ILE A  10      16.156  -5.961  19.119  0.00  0.00    +0.002 C 
ATOM     83  CD1 ILE A  10      14.957  -5.104  18.731  0.00  0.00    +0.000 C 
ENDBRANCH  80  82
ENDBRANCH  65  80
ENDBRANCH  63  65
ENDBRANCH  60  61
BRANCH  60  84
ATOM     84  CB  THR A   9      22.749  -4.684  21.281  0.00  0.00    +0.137 C 
ATOM     85  CG2 THR A   9      22.814  -6.192  20.989  0.00  0.00    +0.034 C 
BRANCH  84  86
ATOM     86  OG1 THR A   9      24.039  -4.110  21.056  0.00  0.00    -0.382 OA
ATOM     87  HG1 THR A   9      24.013  -3.146  21.278  0.00  0.00    +0.210 HD
ENDBRANCH  84  86
ENDBRANCH  60  84
ENDBRANCH  57  60
ENDBRANCH  55  56
BRANCH  55  88
ATOM     88  CB  ASP A   8      20.080  -0.059  21.276  0.00  0.00    +0.143 C 
BRANCH  88  89
ATOM     89  CG  ASP A   8      19.804   1.342  21.790  0.00  0.00    +0.367 C 
ATOM     90  OD2 ASP A   8      20.668   1.896  22.497  0.00  0.00    -0.246 OA
ATOM     91  OD1 ASP A   8      18.723   1.889  21.476  0.00  0.00    -0.246 OA
ENDBRANCH  88  89
ENDBRANCH  55  88
ENDBRANCH  53  55
ENDBRANCH  50  51
BRANCH  50  92
ATOM     92  CB  ASP A   7      21.774   4.100  19.292  0.00  0.00    +0.143 C 
BRANCH  92  93
ATOM     93  CG  ASP A   7      21.573   5.228  18.290  0.00  0.00    +0.367 C 
ATOM     94  OD2 ASP A   7      20.409   5.648  18.110  0.00  0.00    -0.246 OA
ATOM     95  OD1 ASP A   7      22.559   5.706  17.696  0.00  0.00    -0.246 OA
ENDBRANCH  92  93
ENDBRANCH  50  92
ENDBRANCH   2  50
TORSDOF 40
REMARK  Name = ../refined-set-2016/1sgu/1sgu_pocket.pdb
REMARK  230 active torsions:
REMARK  status: ('A' for Active; 'I' for Inactive)
REMARK    1  A    between atoms: _1  and  _3
REMARK    2  A    between atoms: _3  and  _4
REMARK    3  A    between atoms: _3  and  _6
REMARK    4  A    between atoms: _6  and  _7
REMARK    5  A    between atoms: _7  and  _8
REMARK    6  A    between atoms: _8  and  _9
REMARK    7  A    between atoms: _18  and  _20
REMARK    8  A    between atoms: _20  and  _21
REMARK    9  A    between atoms: _20  and  _23
REMARK   10  A    between atoms: _23  and  _24
REMARK   11  A    between atoms: _27  and  _29
REMARK   12  A    between atoms: _29  and  _30
REMARK   13  A    between atoms: _29  and  _32
REMARK   14  A    between atoms: _32  and  _33
REMARK   15  A    between atoms: _36  and  _38
REMARK   16  A    between atoms: _38  and  _39
REMARK   17  A    between atoms: _38  and  _41
REMARK   18  A    between atoms: _41  and  _42
REMARK   19  A    between atoms: _45  and  _47
REMARK   20  A    between atoms: _47  and  _48
REMARK   21  A    between atoms: _47  and  _50
REMARK   22  A    between atoms: _50  and  _51
REMARK   23  A    between atoms: _54  and  _56
REMARK   24  A    between atoms: _56  and  _57
REMARK   25  A    between atoms: _59  and  _61
REMARK   26  A    between atoms: _61  and  _62
REMARK   27  A    between atoms: _65  and  _67
REMARK   28  A    between atoms: _67  and  _68
REMARK   29  A    between atoms: _67  and  _70
REMARK   30  A    between atoms: _70  and  _71
REMARK   31  A    between atoms: _74  and  _76
REMARK   32  A    between atoms: _76  and  _77
REMARK   33  A    between atoms: _76  and  _79
REMARK   34  A    between atoms: _79  and  _80
REMARK   35  A    between atoms: _83  and  _85
REMARK   36  A    between atoms: _85  and  _86
REMARK   37  A    between atoms: _85  and  _88
REMARK   38  A    between atoms: _88  and  _89
REMARK   39  A    between atoms: _92  and  _94
REMARK   40  A    between atoms: _94  and  _95
REMARK   41  A    between atoms: _94  and  _97
REMARK   42  A    between atoms: _97  and  _98
REMARK   43  A    between atoms: _101  and  _103
REMARK   44  A    between atoms: _103  and  _104
REMARK   45  A    between atoms: _103  and  _106
REMARK   46  A    between atoms: _106  and  _107
REMARK   47  A    between atoms: _113  and  _115
REMARK   48  A    between atoms: _115  and  _116
REMARK   49  A    between atoms: _115  and  _118
REMARK   50  A    between atoms: _118  and  _119
REMARK   51  A    between atoms: _119  and  _120
REMARK   52  A    between atoms: _120  and  _121
REMARK   53  A    between atoms: _121  and  _122
REMARK   54  A    between atoms: _126  and  _128
REMARK   55  A    between atoms: _128  and  _129
REMARK   56  A    between atoms: _128  and  _131
REMARK   57  A    between atoms: _131  and  _132
REMARK   58  A    between atoms: _132  and  _133
REMARK   59  A    between atoms: _135  and  _137
REMARK   60  A    between atoms: _137  and  _138
REMARK   61  A    between atoms: _137  and  _140
REMARK   62  A    between atoms: _140  and  _141
REMARK   63  A    between atoms: _144  and  _146
REMARK   64  A    between atoms: _146  and  _147
REMARK   65  A    between atoms: _149  and  _151
REMARK   66  A    between atoms: _151  and  _152
REMARK   67  A    between atoms: _154  and  _156
REMARK   68  A    between atoms: _156  and  _157
REMARK   69  A    between atoms: _156  and  _159
REMARK   70  A    between atoms: _159  and  _160
REMARK   71  A    between atoms: _163  and  _165
REMARK   72  A    between atoms: _165  and  _166
REMARK   73  A    between atoms: _168  and  _170
REMARK   74  A    between atoms: _170  and  _171
REMARK   75  A    between atoms: _173  and  _175
REMARK   76  A    between atoms: _175  and  _176
REMARK   77  A    between atoms: _175  and  _178
REMARK   78  A    between atoms: _178  and  _179
REMARK   79  A    between atoms: _185  and  _187
REMARK   80  A    between atoms: _187  and  _188
REMARK   81  A    between atoms: _187  and  _190
REMARK   82  A    between atoms: _193  and  _195
REMARK   83  A    between atoms: _195  and  _196
REMARK   84  A    between atoms: _195  and  _198
REMARK   85  A    between atoms: _201  and  _203
REMARK   86  A    between atoms: _203  and  _204
REMARK   87  A    between atoms: _203  and  _206
REMARK   88  A    between atoms: _206  and  _207
REMARK   89  A    between atoms: _211  and  _212
REMARK   90  A    between atoms: _217  and  _219
REMARK   91  A    between atoms: _219  and  _220
REMARK   92  A    between atoms: _219  and  _222
REMARK   93  A    between atoms: _222  and  _223
REMARK   94  A    between atoms: _227  and  _228
REMARK   95  A    between atoms: _233  and  _235
REMARK   96  A    between atoms: _235  and  _236
REMARK   97  A    between atoms: _239  and  _241
REMARK   98  A    between atoms: _241  and  _242
REMARK   99  A    between atoms: _241  and  _244
REMARK  100  A    between atoms: _244  and  _245
REMARK  101  A    between atoms: _250  and  _252
REMARK  102  A    between atoms: _252  and  _253
REMARK  103  A    between atoms: _252  and  _255
REMARK  104  A    between atoms: _258  and  _260
REMARK  105  A    between atoms: _260  and  _261
REMARK  106  A    between atoms: _260  and  _263
REMARK  107  A    between atoms: _263  and  _264
REMARK  108  A    between atoms: _267  and  _269
REMARK  109  A    between atoms: _269  and  _270
REMARK  110  A    between atoms: _272  and  _274
REMARK  111  A    between atoms: _274  and  _275
REMARK  112  A    between atoms: _274  and  _277
REMARK  113  A    between atoms: _277  and  _278
REMARK  114  A    between atoms: _278  and  _279
REMARK  115  A    between atoms: _279  and  _280
REMARK  116  A    between atoms: _289  and  _291
REMARK  117  A    between atoms: _291  and  _292
REMARK  118  A    between atoms: _291  and  _294
REMARK  119  A    between atoms: _294  and  _295
REMARK  120  A    between atoms: _300  and  _302
REMARK  121  A    between atoms: _302  and  _303
REMARK  122  A    between atoms: _302  and  _305
REMARK  123  A    between atoms: _305  and  _306
REMARK  124  A    between atoms: _306  and  _307
REMARK  125  A    between atoms: _307  and  _308
REMARK  126  A    between atoms: _317  and  _319
REMARK  127  A    between atoms: _319  and  _320
REMARK  128  A    between atoms: _319  and  _322
REMARK  129  A    between atoms: _322  and  _323
REMARK  130  A    between atoms: _326  and  _328
REMARK  131  A    between atoms: _328  and  _329
REMARK  132  A    between atoms: _328  and  _331
REMARK  133  A    between atoms: _331  and  _332
REMARK  134  A    between atoms: _335  and  _337
REMARK  135  A    between atoms: _337  and  _338
REMARK  136  A    between atoms: _337  and  _340
REMARK  137  A    between atoms: _340  and  _341
REMARK  138  A    between atoms: _344  and  _346
REMARK  139  A    between atoms: _346  and  _347
REMARK  140  A    between atoms: _346  and  _349
REMARK  141  A    between atoms: _349  and  _350
REMARK  142  A    between atoms: _353  and  _355
REMARK  143  A    between atoms: _355  and  _356
REMARK  144  A    between atoms: _358  and  _360
REMARK  145  A    between atoms: _360  and  _361
REMARK  146  A    between atoms: _364  and  _366
REMARK  147  A    between atoms: _366  and  _367
REMARK  148  A    between atoms: _366  and  _369
REMARK  149  A    between atoms: _369  and  _370
REMARK  150  A    between atoms: _373  and  _375
REMARK  151  A    between atoms: _375  and  _376
REMARK  152  A    between atoms: _375  and  _378
REMARK  153  A    between atoms: _378  and  _379
REMARK  154  A    between atoms: _382  and  _384
REMARK  155  A    between atoms: _384  and  _385
REMARK  156  A    between atoms: _384  and  _387
REMARK  157  A    between atoms: _387  and  _388
REMARK  158  A    between atoms: _391  and  _393
REMARK  159  A    between atoms: _393  and  _394
REMARK  160  A    between atoms: _393  and  _396
REMARK  161  A    between atoms: _396  and  _397
REMARK  162  A    between atoms: _400  and  _402
REMARK  163  A    between atoms: _402  and  _403
REMARK  164  A    between atoms: _402  and  _405
REMARK  165  A    between atoms: _405  and  _406
REMARK  166  A    between atoms: _412  and  _414
REMARK  167  A    between atoms: _414  and  _415
REMARK  168  A    between atoms: _414  and  _417
REMARK  169  A    between atoms: _417  and  _418
REMARK  170  A    between atoms: _418  and  _419
REMARK  171  A    between atoms: _419  and  _420
REMARK  172  A    between atoms: _420  and  _421
REMARK  173  A    between atoms: _425  and  _427
REMARK  174  A    between atoms: _427  and  _428
REMARK  175  A    between atoms: _427  and  _430
REMARK  176  A    between atoms: _430  and  _431
REMARK  177  A    between atoms: _431  and  _432
REMARK  178  A    between atoms: _434  and  _436
REMARK  179  A    between atoms: _436  and  _437
REMARK  180  A    between atoms: _436  and  _439
REMARK  181  A    between atoms: _439  and  _440
REMARK  182  A    between atoms: _443  and  _445
REMARK  183  A    between atoms: _445  and  _446
REMARK  184  A    between atoms: _448  and  _450
REMARK  185  A    between atoms: _450  and  _451
REMARK  186  A    between atoms: _453  and  _455
REMARK  187  A    between atoms: _455  and  _456
REMARK  188  A    between atoms: _455  and  _458
REMARK  189  A    between atoms: _458  and  _459
REMARK  190  A    between atoms: _462  and  _464
REMARK  191  A    between atoms: _464  and  _465
REMARK  192  A    between atoms: _467  and  _469
REMARK  193  A    between atoms: _469  and  _470
REMARK  194  A    between atoms: _472  and  _474
REMARK  195  A    between atoms: _474  and  _475
REMARK  196  A    between atoms: _474  and  _477
REMARK  197  A    between atoms: _480  and  _482
REMARK  198  A    between atoms: _482  and  _483
REMARK  199  A    between atoms: _482  and  _485
REMARK  200  A    between atoms: _485  and  _486
REMARK  201  A    between atoms: _489  and  _491
REMARK  202  A    between atoms: _491  and  _492
REMARK  203  A    between atoms: _491  and  _494
REMARK  204  A    between atoms: _494  and  _495
REMARK  205  A    between atoms: _499  and  _500
REMARK  206  A    between atoms: _505  and  _507
REMARK  207  A    between atoms: _507  and  _508
REMARK  208  A    between atoms: _511  and  _513
REMARK  209  A    between atoms: _513  and  _514
REMARK  210  A    between atoms: _513  and  _516
REMARK  211  A    between atoms: _516  and  _517
REMARK  212  A    between atoms: _522  and  _524
REMARK  213  A    between atoms: _524  and  _525
REMARK  214  A    between atoms: _524  and  _527
REMARK  215  A    between atoms: _530  and  _532
REMARK  216  A    between atoms: _532  and  _533
REMARK  217  A    between atoms: _532  and  _535
REMARK  218  A    between atoms: _535  and  _536
REMARK  219  A    between atoms: _539  and  _541
REMARK  220  A    between atoms: _541  and  _542
REMARK  221  A    between atoms: _544  and  _546
REMARK  222  A    between atoms: _546  and  _547
REMARK  223  A    between atoms: _546  and  _549
REMARK  224  A    between atoms: _549  and  _550
REMARK  225  A    between atoms: _550  and  _551
REMARK  226  A    between atoms: _551  and  _552
REMARK  227  A    between atoms: _561  and  _563
REMARK  228  A    between atoms: _563  and  _564
REMARK  229  A    between atoms: _563  and  _566
REMARK  230  A    between atoms: _566  and  _567
REMARK                            x       y       z     vdW  Elec       q    Type
REMARK                         _______ _______ _______ _____ _____    ______ ____
ROOT
ATOM      1  C   GLY A   5      13.392   2.737  11.620  0.00  0.00    +0.243 C 
ATOM      2  O   GLY A   5      12.370   3.421  11.603  0.00  0.00    -0.273 OA
ATOM      3  N   ILE A   6      13.960   2.278  10.519  0.00  0.00    -0.297 N 
ATOM      4  H   ILE A   6      14.846   1.737  10.580  0.00  0.00    +0.150 HD
ENDROOT
BRANCH   3   5
ATOM      5  CA  ILE A   6      13.353   2.525   9.228  0.00  0.00    +0.149 C 
BRANCH   5   6
ATOM      6  C   ILE A   6      12.080   1.681   9.188  0.00  0.00    +0.241 C 
ATOM      7  O   ILE A   6      12.089   0.524   9.588  0.00  0.00    -0.273 OA
ATOM      8  N   GLY A   7      10.979   2.260   8.738  0.00  0.00    -0.295 N 
ATOM      9  H   GLY A   7      10.994   3.256   8.441  0.00  0.00    +0.150 HD
BRANCH   8  10
ATOM     10  CA  GLY A   7       9.749   1.492   8.663  0.00  0.00    +0.176 C 
BRANCH  10  11
ATOM     11  C   GLY A   7       8.813   1.599   9.851  0.00  0.00    +0.243 C 
ATOM     12  N   GLY A   8       9.278   2.172  10.956  0.00  0.00    -0.295 N 
ATOM     13  H   GLY A   8      10.256   2.524  10.995  0.00  0.00    +0.150 HD
ATOM     14  O   GLY A   7       7.673   1.152   9.770  0.00  0.00    -0.273 OA
BRANCH  12  15
ATOM     15  CA  GLY A   8       8.408   2.300  12.105  0.00  0.00    +0.176 C 
BRANCH  15  16
ATOM     16  C   GLY A   8       9.041   1.977  13.445  0.00  0.00    +0.243 C 
ATOM     17  N   PHE A   9       8.188   1.752  14.439  0.00  0.00    -0.297 N 
ATOM     18  H   PHE A   9       7.166   1.780  14.247  0.00  0.00    +0.150 HD
ATOM     19  O   GLY A   8      10.267   1.921  13.580  0.00  0.00    -0.273 OA
BRANCH  17  20
ATOM     20  CA  PHE A   9       8.650   1.467  15.791  0.00  0.00    +0.153 C 
BRANCH  20  21
ATOM     21  C   PHE A   9       8.278   0.071  16.248  0.00  0.00    +0.241 C 
ATOM     22  N   VAL A  10       9.032  -0.443  17.211  0.00  0.00    -0.298 N 
ATOM     23  H   VAL A  10       9.824   0.113  17.591  0.00  0.00    +0.150 HD
ATOM     24  O   PHE A   9       7.325  -0.527  15.751  0.00  0.00    -0.273 OA
BRANCH  22  25
ATOM     25  CA  VAL A  10       8.771  -1.766  17.743  0.00  0.00    +0.137 C 
BRANCH  25  26
ATOM     26  CB  VAL A  10       9.752  -2.815  17.167  0.00  0.00    +0.026 C 
ATOM     27  CG2 VAL A  10      11.174  -2.444  17.505  0.00  0.00    +0.002 C 
ATOM     28  CG1 VAL A  10       9.570  -2.916  15.647  0.00  0.00    +0.002 C 
ENDBRANCH  25  26
BRANCH  25  29
ATOM     29  C   VAL A  10       8.892  -1.739  19.258  0.00  0.00    +0.227 C 
ATOM     30  O   VAL A  10       9.769  -1.070  19.815  0.00  0.00    -0.286 OA
ENDBRANCH  25  29
ENDBRANCH  22  25
ENDBRANCH  20  21
BRANCH  20  31
ATOM     31  CB  PHE A   9       8.061   2.489  16.758  0.00  0.00    +0.055 C 
BRANCH  31  32
ATOM     32  CG  PHE A   9       6.576   2.343  16.964  0.00  0.00    -0.020 A 
ATOM     33  CD2 PHE A   9       6.072   1.432  17.890  0.00  0.00    -0.004 A 
ATOM     34  CE2 PHE A   9       4.698   1.308  18.098  0.00  0.00    -0.000 A 
ATOM     35  CZ  PHE A   9       3.811   2.097  17.376  0.00  0.00    -0.000 A 
ATOM     36  CE1 PHE A   9       4.297   3.005  16.448  0.00  0.00    -0.000 A 
ATOM     37  CD1 PHE A   9       5.680   3.126  16.243  0.00  0.00    -0.004 A 
ENDBRANCH  31  32
ENDBRANCH  20  31
ENDBRANCH  17  20
ENDBRANCH  15  16
ENDBRANCH  12  15
ENDBRANCH  10  11
ENDBRANCH   8  10
ENDBRANCH   5   6
BRANCH   5  38
ATOM     38  CB  ILE A   6      14.318   2.110   8.090  0.00  0.00    +0.027 C 
ATOM     39  CG2 ILE A   6      13.548   1.565   6.901  0.00  0.00    +0.002 C 
BRANCH  38  40
ATOM     40  CG1 ILE A   6      15.180   3.312   7.699  0.00  0.00    +0.002 C 
ATOM     41  CD1 ILE A   6      15.879   3.167   6.360  0.00  0.00    +0.000 C 
ENDBRANCH  38  40
ENDBRANCH   5  38
ENDBRANCH   3   5
BRANCH   1  42
ATOM     42  CA  GLY A   5      14.063   2.398  12.923  0.00  0.00    +0.176 C 
BRANCH  42  45
ATOM     43  C   GLY A   4      13.521   3.122  15.152  0.00  0.00    +0.243 C 
ATOM     44  O   GLY A   4      14.710   3.185  15.462  0.00  0.00    -0.273 OA
ATOM     45  N   GLY A   5      13.110   2.736  13.955  0.00  0.00    -0.295 N 
ATOM     46  H   GLY A   5      12.091   2.675  13.755  0.00  0.00    +0.150 HD
BRANCH  43  47
ATOM     47  CA  GLY A   4      12.428   3.475  16.140  0.00  0.00    +0.176 C 
BRANCH  47  50
ATOM     48  C   ILE A   3      12.284   2.077  18.089  0.00  0.00    +0.241 C 
ATOM     49  O   ILE A   3      11.404   1.384  17.571  0.00  0.00    -0.273 OA
ATOM     50  N   GLY A   4      12.834   3.120  17.482  0.00  0.00    -0.295 N 
ATOM     51  H   GLY A   4      13.558   3.683  17.972  0.00  0.00    +0.150 HD
BRANCH  48  52
ATOM     52  CA  ILE A   3      12.788   1.786  19.495  0.00  0.00    +0.149 C 
BRANCH  52  55
ATOM     53  C   MET A   2      11.137   1.990  21.265  0.00  0.00    +0.241 C 
ATOM     54  O   MET A   2      11.524   3.111  21.587  0.00  0.00    -0.273 OA
ATOM     55  N   ILE A   3      11.690   1.274  20.293  0.00  0.00    -0.297 N 
ATOM     56  H   ILE A   3      11.326   0.320  20.098  0.00  0.00    +0.150 HD
BRANCH  53  57
ATOM     57  CA  MET A   2       9.994   1.325  22.002  0.00  0.00    +0.149 C 
BRANCH  57  60
ATOM     58  C   LYS A   1      10.439   0.089  24.029  0.00  0.00    +0.238 C 
ATOM     59  O   LYS A   1      10.245  -0.990  23.474  0.00  0.00    -0.274 OA
ATOM     60  N   MET A   2      10.330   1.257  23.410  0.00  0.00    -0.297 N 
ATOM     61  H   MET A   2      10.488   2.136  23.943  0.00  0.00    +0.150 HD
BRANCH  58  62
ATOM     62  CA  LYS A   1      10.822   0.150  25.487  0.00  0.00    +0.145 C 
BRANCH  62  63
ATOM     63  N   LYS A   1      10.171  -0.907  26.232  0.00  0.00    -0.238 NA
ATOM     64  H   LYS A   1       9.782  -1.732  25.732  0.00  0.00    +0.142 HD
ENDBRANCH  62  63
BRANCH  62  65
ATOM     65  CB  LYS A   1      12.342   0.030  25.619  0.00  0.00    +0.026 C 
BRANCH  65  66
ATOM     66  CG  LYS A   1      13.108   1.105  24.874  0.00  0.00    -0.000 C 
BRANCH  66  67
ATOM     67  CD  LYS A   1      14.609   0.926  25.025  0.00  0.00    -0.024 C 
BRANCH  67  68
ATOM     68  CE  LYS A   1      15.361   2.096  24.410  0.00  0.00    -0.086 C 
BRANCH  68  69
ATOM     69  NZ  LYS A   1      16.833   2.003  24.627  0.00  0.00    +0.380 N 
ATOM     70  HZ1 LYS A   1      17.032   1.994  25.648  0.00  0.00    -0.089 HD
ATOM     71  HZ2 LYS A   1      17.191   1.128  24.195  0.00  0.00    -0.089 HD
ATOM     72  HZ3 LYS A   1      17.299   2.823  24.189  0.00  0.00    -0.089 HD
ENDBRANCH  68  69
ENDBRANCH  67  68
ENDBRANCH  66  67
ENDBRANCH  65  66
ENDBRANCH  62  65
ENDBRANCH  58  62
ENDBRANCH  57  60
BRANCH  57  73
ATOM     73  CB  MET A   2       8.700   2.107  21.797  0.00  0.00    +0.041 C 
BRANCH  73  74
ATOM     74  CG  MET A   2       7.474   1.362  22.278  0.00  0.00    +0.060 C 
BRANCH  74  75
ATOM     75  SD  MET A   2       6.017   2.396  22.240  0.00  0.00    -0.139 S 
ATOM     76  CE  MET A   2       6.000   2.969  23.949  0.00  0.00    +0.069 C 
ENDBRANCH  74  75
ENDBRANCH  73  74
ENDBRANCH  57  73
ENDBRANCH  53  57
ENDBRANCH  52  55
BRANCH  52  77
ATOM     77  CB  ILE A   3      13.960   0.771  19.421  0.00  0.00    +0.027 C 
ATOM     78  CG2 ILE A   3      14.613   0.635  20.780  0.00  0.00    +0.002 C 
BRANCH  77  79
ATOM     79  CG1 ILE A   3      13.446  -0.585  18.938  0.00  0.00    +0.002 C 
ATOM     80  CD1 ILE A   3      14.492  -1.686  18.939  0.00  0.00    +0.000 C 
ENDBRANCH  77  79
ENDBRANCH  52  77
ENDBRANCH  48  52
ENDBRANCH  47  50
ENDBRANCH  43  47
ENDBRANCH  42  45
ENDBRANCH   1  42
TORSDOF 35
REMARK  Name = ../refined-set-2016/1sgu/1sgu_pocket.pdb
REMARK  230 active torsions:
REMARK  status: ('A' for Active; 'I' for Inactive)
REMARK    1  A    between atoms: _1  and  _3
REMARK    2  A    between atoms: _3  and  _4
REMARK    3  A    between atoms: _3  and  _6
REMARK    4  A    between atoms: _6  and  _7
REMARK    5  A    between atoms: _7  and  _8
REMARK    6  A    between atoms: _8  and  _9
REMARK    7  A    between atoms: _18  and  _20
REMARK    8  A    between atoms: _20  and  _21
REMARK    9  A    between atoms: _20  and  _23
REMARK   10  A    between atoms: _23  and  _24
REMARK   11  A    between atoms: _27  and  _29
REMARK   12  A    between atoms: _29  and  _30
REMARK   13  A    between atoms: _29  and  _32
REMARK   14  A    between atoms: _32  and  _33
REMARK   15  A    between atoms: _36  and  _38
REMARK   16  A    between atoms: _38  and  _39
REMARK   17  A    between atoms: _38  and  _41
REMARK   18  A    between atoms: _41  and  _42
REMARK   19  A    between atoms: _45  and  _47
REMARK   20  A    between atoms: _47  and  _48
REMARK   21  A    between atoms: _47  and  _50
REMARK   22  A    between atoms: _50  and  _51
REMARK   23  A    between atoms: _54  and  _56
REMARK   24  A    between atoms: _56  and  _57
REMARK   25  A    between atoms: _59  and  _61
REMARK   26  A    between atoms: _61  and  _62
REMARK   27  A    between atoms: _65  and  _67
REMARK   28  A    between atoms: _67  and  _68
REMARK   29  A    between atoms: _67  and  _70
REMARK   30  A    between atoms: _70  and  _71
REMARK   31  A    between atoms: _74  and  _76
REMARK   32  A    between atoms: _76  and  _77
REMARK   33  A    between atoms: _76  and  _79
REMARK   34  A    between atoms: _79  and  _80
REMARK   35  A    between atoms: _83  and  _85
REMARK   36  A    between atoms: _85  and  _86
REMARK   37  A    between atoms: _85  and  _88
REMARK   38  A    between atoms: _88  and  _89
REMARK   39  A    between atoms: _92  and  _94
REMARK   40  A    between atoms: _94  and  _95
REMARK   41  A    between atoms: _94  and  _97
REMARK   42  A    between atoms: _97  and  _98
REMARK   43  A    between atoms: _101  and  _103
REMARK   44  A    between atoms: _103  and  _104
REMARK   45  A    between atoms: _103  and  _106
REMARK   46  A    between atoms: _106  and  _107
REMARK   47  A    between atoms: _113  and  _115
REMARK   48  A    between atoms: _115  and  _116
REMARK   49  A    between atoms: _115  and  _118
REMARK   50  A    between atoms: _118  and  _119
REMARK   51  A    between atoms: _119  and  _120
REMARK   52  A    between atoms: _120  and  _121
REMARK   53  A    between atoms: _121  and  _122
REMARK   54  A    between atoms: _126  and  _128
REMARK   55  A    between atoms: _128  and  _129
REMARK   56  A    between atoms: _128  and  _131
REMARK   57  A    between atoms: _131  and  _132
REMARK   58  A    between atoms: _132  and  _133
REMARK   59  A    between atoms: _135  and  _137
REMARK   60  A    between atoms: _137  and  _138
REMARK   61  A    between atoms: _137  and  _140
REMARK   62  A    between atoms: _140  and  _141
REMARK   63  A    between atoms: _144  and  _146
REMARK   64  A    between atoms: _146  and  _147
REMARK   65  A    between atoms: _149  and  _151
REMARK   66  A    between atoms: _151  and  _152
REMARK   67  A    between atoms: _154  and  _156
REMARK   68  A    between atoms: _156  and  _157
REMARK   69  A    between atoms: _156  and  _159
REMARK   70  A    between atoms: _159  and  _160
REMARK   71  A    between atoms: _163  and  _165
REMARK   72  A    between atoms: _165  and  _166
REMARK   73  A    between atoms: _168  and  _170
REMARK   74  A    between atoms: _170  and  _171
REMARK   75  A    between atoms: _173  and  _175
REMARK   76  A    between atoms: _175  and  _176
REMARK   77  A    between atoms: _175  and  _178
REMARK   78  A    between atoms: _178  and  _179
REMARK   79  A    between atoms: _185  and  _187
REMARK   80  A    between atoms: _187  and  _188
REMARK   81  A    between atoms: _187  and  _190
REMARK   82  A    between atoms: _193  and  _195
REMARK   83  A    between atoms: _195  and  _196
REMARK   84  A    between atoms: _195  and  _198
REMARK   85  A    between atoms: _201  and  _203
REMARK   86  A    between atoms: _203  and  _204
REMARK   87  A    between atoms: _203  and  _206
REMARK   88  A    between atoms: _206  and  _207
REMARK   89  A    between atoms: _211  and  _212
REMARK   90  A    between atoms: _217  and  _219
REMARK   91  A    between atoms: _219  and  _220
REMARK   92  A    between atoms: _219  and  _222
REMARK   93  A    between atoms: _222  and  _223
REMARK   94  A    between atoms: _227  and  _228
REMARK   95  A    between atoms: _233  and  _235
REMARK   96  A    between atoms: _235  and  _236
REMARK   97  A    between atoms: _239  and  _241
REMARK   98  A    between atoms: _241  and  _242
REMARK   99  A    between atoms: _241  and  _244
REMARK  100  A    between atoms: _244  and  _245
REMARK  101  A    between atoms: _250  and  _252
REMARK  102  A    between atoms: _252  and  _253
REMARK  103  A    between atoms: _252  and  _255
REMARK  104  A    between atoms: _258  and  _260
REMARK  105  A    between atoms: _260  and  _261
REMARK  106  A    between atoms: _260  and  _263
REMARK  107  A    between atoms: _263  and  _264
REMARK  108  A    between atoms: _267  and  _269
REMARK  109  A    between atoms: _269  and  _270
REMARK  110  A    between atoms: _272  and  _274
REMARK  111  A    between atoms: _274  and  _275
REMARK  112  A    between atoms: _274  and  _277
REMARK  113  A    between atoms: _277  and  _278
REMARK  114  A    between atoms: _278  and  _279
REMARK  115  A    between atoms: _279  and  _280
REMARK  116  A    between atoms: _289  and  _291
REMARK  117  A    between atoms: _291  and  _292
REMARK  118  A    between atoms: _291  and  _294
REMARK  119  A    between atoms: _294  and  _295
REMARK  120  A    between atoms: _300  and  _302
REMARK  121  A    between atoms: _302  and  _303
REMARK  122  A    between atoms: _302  and  _305
REMARK  123  A    between atoms: _305  and  _306
REMARK  124  A    between atoms: _306  and  _307
REMARK  125  A    between atoms: _307  and  _308
REMARK  126  A    between atoms: _317  and  _319
REMARK  127  A    between atoms: _319  and  _320
REMARK  128  A    between atoms: _319  and  _322
REMARK  129  A    between atoms: _322  and  _323
REMARK  130  A    between atoms: _326  and  _328
REMARK  131  A    between atoms: _328  and  _329
REMARK  132  A    between atoms: _328  and  _331
REMARK  133  A    between atoms: _331  and  _332
REMARK  134  A    between atoms: _335  and  _337
REMARK  135  A    between atoms: _337  and  _338
REMARK  136  A    between atoms: _337  and  _340
REMARK  137  A    between atoms: _340  and  _341
REMARK  138  A    between atoms: _344  and  _346
REMARK  139  A    between atoms: _346  and  _347
REMARK  140  A    between atoms: _346  and  _349
REMARK  141  A    between atoms: _349  and  _350
REMARK  142  A    between atoms: _353  and  _355
REMARK  143  A    between atoms: _355  and  _356
REMARK  144  A    between atoms: _358  and  _360
REMARK  145  A    between atoms: _360  and  _361
REMARK  146  A    between atoms: _364  and  _366
REMARK  147  A    between atoms: _366  and  _367
REMARK  148  A    between atoms: _366  and  _369
REMARK  149  A    between atoms: _369  and  _370
REMARK  150  A    between atoms: _373  and  _375
REMARK  151  A    between atoms: _375  and  _376
REMARK  152  A    between atoms: _375  and  _378
REMARK  153  A    between atoms: _378  and  _379
REMARK  154  A    between atoms: _382  and  _384
REMARK  155  A    between atoms: _384  and  _385
REMARK  156  A    between atoms: _384  and  _387
REMARK  157  A    between atoms: _387  and  _388
REMARK  158  A    between atoms: _391  and  _393
REMARK  159  A    between atoms: _393  and  _394
REMARK  160  A    between atoms: _393  and  _396
REMARK  161  A    between atoms: _396  and  _397
REMARK  162  A    between atoms: _400  and  _402
REMARK  163  A    between atoms: _402  and  _403
REMARK  164  A    between atoms: _402  and  _405
REMARK  165  A    between atoms: _405  and  _406
REMARK  166  A    between atoms: _412  and  _414
REMARK  167  A    between atoms: _414  and  _415
REMARK  168  A    between atoms: _414  and  _417
REMARK  169  A    between atoms: _417  and  _418
REMARK  170  A    between atoms: _418  and  _419
REMARK  171  A    between atoms: _419  and  _420
REMARK  172  A    between atoms: _420  and  _421
REMARK  173  A    between atoms: _425  and  _427
REMARK  174  A    between atoms: _427  and  _428
REMARK  175  A    between atoms: _427  and  _430
REMARK  176  A    between atoms: _430  and  _431
REMARK  177  A    between atoms: _431  and  _432
REMARK  178  A    between atoms: _434  and  _436
REMARK  179  A    between atoms: _436  and  _437
REMARK  180  A    between atoms: _436  and  _439
REMARK  181  A    between atoms: _439  and  _440
REMARK  182  A    between atoms: _443  and  _445
REMARK  183  A    between atoms: _445  and  _446
REMARK  184  A    between atoms: _448  and  _450
REMARK  185  A    between atoms: _450  and  _451
REMARK  186  A    between atoms: _453  and  _455
REMARK  187  A    between atoms: _455  and  _456
REMARK  188  A    between atoms: _455  and  _458
REMARK  189  A    between atoms: _458  and  _459
REMARK  190  A    between atoms: _462  and  _464
REMARK  191  A    between atoms: _464  and  _465
REMARK  192  A    between atoms: _467  and  _469
REMARK  193  A    between atoms: _469  and  _470
REMARK  194  A    between atoms: _472  and  _474
REMARK  195  A    between atoms: _474  and  _475
REMARK  196  A    between atoms: _474  and  _477
REMARK  197  A    between atoms: _480  and  _482
REMARK  198  A    between atoms: _482  and  _483
REMARK  199  A    between atoms: _482  and  _485
REMARK  200  A    between atoms: _485  and  _486
REMARK  201  A    between atoms: _489  and  _491
REMARK  202  A    between atoms: _491  and  _492
REMARK  203  A    between atoms: _491  and  _494
REMARK  204  A    between atoms: _494  and  _495
REMARK  205  A    between atoms: _499  and  _500
REMARK  206  A    between atoms: _505  and  _507
REMARK  207  A    between atoms: _507  and  _508
REMARK  208  A    between atoms: _511  and  _513
REMARK  209  A    between atoms: _513  and  _514
REMARK  210  A    between atoms: _513  and  _516
REMARK  211  A    between atoms: _516  and  _517
REMARK  212  A    between atoms: _522  and  _524
REMARK  213  A    between atoms: _524  and  _525
REMARK  214  A    between atoms: _524  and  _527
REMARK  215  A    between atoms: _530  and  _532
REMARK  216  A    between atoms: _532  and  _533
REMARK  217  A    between atoms: _532  and  _535
REMARK  218  A    between atoms: _535  and  _536
REMARK  219  A    between atoms: _539  and  _541
REMARK  220  A    between atoms: _541  and  _542
REMARK  221  A    between atoms: _544  and  _546
REMARK  222  A    between atoms: _546  and  _547
REMARK  223  A    between atoms: _546  and  _549
REMARK  224  A    between atoms: _549  and  _550
REMARK  225  A    between atoms: _550  and  _551
REMARK  226  A    between atoms: _551  and  _552
REMARK  227  A    between atoms: _561  and  _563
REMARK  228  A    between atoms: _563  and  _564
REMARK  229  A    between atoms: _563  and  _566
REMARK  230  A    between atoms: _566  and  _567
REMARK                            x       y       z     vdW  Elec       q    Type
REMARK                         _______ _______ _______ _____ _____    ______ ____
ROOT
ATOM      1  CA  VAL A   1      10.830  -4.433  23.029  0.00  0.00    +0.133 C 
ENDROOT
BRANCH   1   2
ATOM      2  CB  VAL A   1      12.210  -4.158  22.397  0.00  0.00    +0.023 C 
ATOM      3  CG2 VAL A   1      12.756  -2.851  22.938  0.00  0.00    +0.002 C 
ATOM      4  CG1 VAL A   1      12.107  -4.099  20.868  0.00  0.00    +0.002 C 
ENDBRANCH   1   2
BRANCH   1   5
ATOM      5  N   VAL A   1       9.872  -3.416  22.617  0.00  0.00    -0.239 NA
ATOM      6  H   VAL A   1       9.948  -2.455  23.006  0.00  0.00    +0.142 HD
ENDBRANCH   1   5
BRANCH   1   7
ATOM      7  C   VAL A   1      11.023  -4.468  24.544  0.00  0.00    +0.224 C 
ATOM      8  O   VAL A   1      10.533  -3.595  25.265  0.00  0.00    -0.287 OA
ENDBRANCH   1   7
TORSDOF 3
REMARK  Name = ../refined-set-2016/1sgu/1sgu_pocket.pdb
REMARK  230 active torsions:
REMARK  status: ('A' for Active; 'I' for Inactive)
REMARK    1  A    between atoms: _1  and  _3
REMARK    2  A    between atoms: _3  and  _4
REMARK    3  A    between atoms: _3  and  _6
REMARK    4  A    between atoms: _6  and  _7
REMARK    5  A    between atoms: _7  and  _8
REMARK    6  A    between atoms: _8  and  _9
REMARK    7  A    between atoms: _18  and  _20
REMARK    8  A    between atoms: _20  and  _21
REMARK    9  A    between atoms: _20  and  _23
REMARK   10  A    between atoms: _23  and  _24
REMARK   11  A    between atoms: _27  and  _29
REMARK   12  A    between atoms: _29  and  _30
REMARK   13  A    between atoms: _29  and  _32
REMARK   14  A    between atoms: _32  and  _33
REMARK   15  A    between atoms: _36  and  _38
REMARK   16  A    between atoms: _38  and  _39
REMARK   17  A    between atoms: _38  and  _41
REMARK   18  A    between atoms: _41  and  _42
REMARK   19  A    between atoms: _45  and  _47
REMARK   20  A    between atoms: _47  and  _48
REMARK   21  A    between atoms: _47  and  _50
REMARK   22  A    between atoms: _50  and  _51
REMARK   23  A    between atoms: _54  and  _56
REMARK   24  A    between atoms: _56  and  _57
REMARK   25  A    between atoms: _59  and  _61
REMARK   26  A    between atoms: _61  and  _62
REMARK   27  A    between atoms: _65  and  _67
REMARK   28  A    between atoms: _67  and  _68
REMARK   29  A    between atoms: _67  and  _70
REMARK   30  A    between atoms: _70  and  _71
REMARK   31  A    between atoms: _74  and  _76
REMARK   32  A    between atoms: _76  and  _77
REMARK   33  A    between atoms: _76  and  _79
REMARK   34  A    between atoms: _79  and  _80
REMARK   35  A    between atoms: _83  and  _85
REMARK   36  A    between atoms: _85  and  _86
REMARK   37  A    between atoms: _85  and  _88
REMARK   38  A    between atoms: _88  and  _89
REMARK   39  A    between atoms: _92  and  _94
REMARK   40  A    between atoms: _94  and  _95
REMARK   41  A    between atoms: _94  and  _97
REMARK   42  A    between atoms: _97  and  _98
REMARK   43  A    between atoms: _101  and  _103
REMARK   44  A    between atoms: _103  and  _104
REMARK   45  A    between atoms: _103  and  _106
REMARK   46  A    between atoms: _106  and  _107
REMARK   47  A    between atoms: _113  and  _115
REMARK   48  A    between atoms: _115  and  _116
REMARK   49  A    between atoms: _115  and  _118
REMARK   50  A    between atoms: _118  and  _119
REMARK   51  A    between atoms: _119  and  _120
REMARK   52  A    between atoms: _120  and  _121
REMARK   53  A    between atoms: _121  and  _122
REMARK   54  A    between atoms: _126  and  _128
REMARK   55  A    between atoms: _128  and  _129
REMARK   56  A    between atoms: _128  and  _131
REMARK   57  A    between atoms: _131  and  _132
REMARK   58  A    between atoms: _132  and  _133
REMARK   59  A    between atoms: _135  and  _137
REMARK   60  A    between atoms: _137  and  _138
REMARK   61  A    between atoms: _137  and  _140
REMARK   62  A    between atoms: _140  and  _141
REMARK   63  A    between atoms: _144  and  _146
REMARK   64  A    between atoms: _146  and  _147
REMARK   65  A    between atoms: _149  and  _151
REMARK   66  A    between atoms: _151  and  _152
REMARK   67  A    between atoms: _154  and  _156
REMARK   68  A    between atoms: _156  and  _157
REMARK   69  A    between atoms: _156  and  _159
REMARK   70  A    between atoms: _159  and  _160
REMARK   71  A    between atoms: _163  and  _165
REMARK   72  A    between atoms: _165  and  _166
REMARK   73  A    between atoms: _168  and  _170
REMARK   74  A    between atoms: _170  and  _171
REMARK   75  A    between atoms: _173  and  _175
REMARK   76  A    between atoms: _175  and  _176
REMARK   77  A    between atoms: _175  and  _178
REMARK   78  A    between atoms: _178  and  _179
REMARK   79  A    between atoms: _185  and  _187
REMARK   80  A    between atoms: _187  and  _188
REMARK   81  A    between atoms: _187  and  _190
REMARK   82  A    between atoms: _193  and  _195
REMARK   83  A    between atoms: _195  and  _196
REMARK   84  A    between atoms: _195  and  _198
REMARK   85  A    between atoms: _201  and  _203
REMARK   86  A    between atoms: _203  and  _204
REMARK   87  A    between atoms: _203  and  _206
REMARK   88  A    between atoms: _206  and  _207
REMARK   89  A    between atoms: _211  and  _212
REMARK   90  A    between atoms: _217  and  _219
REMARK   91  A    between atoms: _219  and  _220
REMARK   92  A    between atoms: _219  and  _222
REMARK   93  A    between atoms: _222  and  _223
REMARK   94  A    between atoms: _227  and  _228
REMARK   95  A    between atoms: _233  and  _235
REMARK   96  A    between atoms: _235  and  _236
REMARK   97  A    between atoms: _239  and  _241
REMARK   98  A    between atoms: _241  and  _242
REMARK   99  A    between atoms: _241  and  _244
REMARK  100  A    between atoms: _244  and  _245
REMARK  101  A    between atoms: _250  and  _252
REMARK  102  A    between atoms: _252  and  _253
REMARK  103  A    between atoms: _252  and  _255
REMARK  104  A    between atoms: _258  and  _260
REMARK  105  A    between atoms: _260  and  _261
REMARK  106  A    between atoms: _260  and  _263
REMARK  107  A    between atoms: _263  and  _264
REMARK  108  A    between atoms: _267  and  _269
REMARK  109  A    between atoms: _269  and  _270
REMARK  110  A    between atoms: _272  and  _274
REMARK  111  A    between atoms: _274  and  _275
REMARK  112  A    between atoms: _274  and  _277
REMARK  113  A    between atoms: _277  and  _278
REMARK  114  A    between atoms: _278  and  _279
REMARK  115  A    between atoms: _279  and  _280
REMARK  116  A    between atoms: _289  and  _291
REMARK  117  A    between atoms: _291  and  _292
REMARK  118  A    between atoms: _291  and  _294
REMARK  119  A    between atoms: _294  and  _295
REMARK  120  A    between atoms: _300  and  _302
REMARK  121  A    between atoms: _302  and  _303
REMARK  122  A    between atoms: _302  and  _305
REMARK  123  A    between atoms: _305  and  _306
REMARK  124  A    between atoms: _306  and  _307
REMARK  125  A    between atoms: _307  and  _308
REMARK  126  A    between atoms: _317  and  _319
REMARK  127  A    between atoms: _319  and  _320
REMARK  128  A    between atoms: _319  and  _322
REMARK  129  A    between atoms: _322  and  _323
REMARK  130  A    between atoms: _326  and  _328
REMARK  131  A    between atoms: _328  and  _329
REMARK  132  A    between atoms: _328  and  _331
REMARK  133  A    between atoms: _331  and  _332
REMARK  134  A    between atoms: _335  and  _337
REMARK  135  A    between atoms: _337  and  _338
REMARK  136  A    between atoms: _337  and  _340
REMARK  137  A    between atoms: _340  and  _341
REMARK  138  A    between atoms: _344  and  _346
REMARK  139  A    between atoms: _346  and  _347
REMARK  140  A    between atoms: _346  and  _349
REMARK  141  A    between atoms: _349  and  _350
REMARK  142  A    between atoms: _353  and  _355
REMARK  143  A    between atoms: _355  and  _356
REMARK  144  A    between atoms: _358  and  _360
REMARK  145  A    between atoms: _360  and  _361
REMARK  146  A    between atoms: _364  and  _366
REMARK  147  A    between atoms: _366  and  _367
REMARK  148  A    between atoms: _366  and  _369
REMARK  149  A    between atoms: _369  and  _370
REMARK  150  A    between atoms: _373  and  _375
REMARK  151  A    between atoms: _375  and  _376
REMARK  152  A    between atoms: _375  and  _378
REMARK  153  A    between atoms: _378  and  _379
REMARK  154  A    between atoms: _382  and  _384
REMARK  155  A    between atoms: _384  and  _385
REMARK  156  A    between atoms: _384  and  _387
REMARK  157  A    between atoms: _387  and  _388
REMARK  158  A    between atoms: _391  and  _393
REMARK  159  A    between atoms: _393  and  _394
REMARK  160  A    between atoms: _393  and  _396
REMARK  161  A    between atoms: _396  and  _397
REMARK  162  A    between atoms: _400  and  _402
REMARK  163  A    between atoms: _402  and  _403
REMARK  164  A    between atoms: _402  and  _405
REMARK  165  A    between atoms: _405  and  _406
REMARK  166  A    between atoms: _412  and  _414
REMARK  167  A    between atoms: _414  and  _415
REMARK  168  A    between atoms: _414  and  _417
REMARK  169  A    between atoms: _417  and  _418
REMARK  170  A    between atoms: _418  and  _419
REMARK  171  A    between atoms: _419  and  _420
REMARK  172  A    between atoms: _420  and  _421
REMARK  173  A    between atoms: _425  and  _427
REMARK  174  A    between atoms: _427  and  _428
REMARK  175  A    between atoms: _427  and  _430
REMARK  176  A    between atoms: _430  and  _431
REMARK  177  A    between atoms: _431  and  _432
REMARK  178  A    between atoms: _434  and  _436
REMARK  179  A    between atoms: _436  and  _437
REMARK  180  A    between atoms: _436  and  _439
REMARK  181  A    between atoms: _439  and  _440
REMARK  182  A    between atoms: _443  and  _445
REMARK  183  A    between atoms: _445  and  _446
REMARK  184  A    between atoms: _448  and  _450
REMARK  185  A    between atoms: _450  and  _451
REMARK  186  A    between atoms: _453  and  _455
REMARK  187  A    between atoms: _455  and  _456
REMARK  188  A    between atoms: _455  and  _458
REMARK  189  A    between atoms: _458  and  _459
REMARK  190  A    between atoms: _462  and  _464
REMARK  191  A    between atoms: _464  and  _465
REMARK  192  A    between atoms: _467  and  _469
REMARK  193  A    between atoms: _469  and  _470
REMARK  194  A    between atoms: _472  and  _474
REMARK  195  A    between atoms: _474  and  _475
REMARK  196  A    between atoms: _474  and  _477
REMARK  197  A    between atoms: _480  and  _482
REMARK  198  A    between atoms: _482  and  _483
REMARK  199  A    between atoms: _482  and  _485
REMARK  200  A    between atoms: _485  and  _486
REMARK  201  A    between atoms: _489  and  _491
REMARK  202  A    between atoms: _491  and  _492
REMARK  203  A    between atoms: _491  and  _494
REMARK  204  A    between atoms: _494  and  _495
REMARK  205  A    between atoms: _499  and  _500
REMARK  206  A    between atoms: _505  and  _507
REMARK  207  A    between atoms: _507  and  _508
REMARK  208  A    between atoms: _511  and  _513
REMARK  209  A    between atoms: _513  and  _514
REMARK  210  A    between atoms: _513  and  _516
REMARK  211  A    between atoms: _516  and  _517
REMARK  212  A    between atoms: _522  and  _524
REMARK  213  A    between atoms: _524  and  _525
REMARK  214  A    between atoms: _524  and  _527
REMARK  215  A    between atoms: _530  and  _532
REMARK  216  A    between atoms: _532  and  _533
REMARK  217  A    between atoms: _532  and  _535
REMARK  218  A    between atoms: _535  and  _536
REMARK  219  A    between atoms: _539  and  _541
REMARK  220  A    between atoms: _541  and  _542
REMARK  221  A    between atoms: _544  and  _546
REMARK  222  A    between atoms: _546  and  _547
REMARK  223  A    between atoms: _546  and  _549
REMARK  224  A    between atoms: _549  and  _550
REMARK  225  A    between atoms: _550  and  _551
REMARK  226  A    between atoms: _551  and  _552
REMARK  227  A    between atoms: _561  and  _563
REMARK  228  A    between atoms: _563  and  _564
REMARK  229  A    between atoms: _563  and  _566
REMARK  230  A    between atoms: _566  and  _567
REMARK                            x       y       z     vdW  Elec       q    Type
REMARK                         _______ _______ _______ _____ _____    ______ ____
ROOT
ATOM      1  CA  LEU A   1      16.927  -5.456  23.720  0.00  0.00    +0.133 C 
ENDROOT
BRANCH   1   2
ATOM      2  N   LEU A   1      18.368  -5.511  23.913  0.00  0.00    -0.239 NA
ATOM      3  H   LEU A   1      19.001  -5.338  23.106  0.00  0.00    +0.142 HD
ENDBRANCH   1   2
BRANCH   1   4
ATOM      4  C   LEU A   1      16.454  -6.751  23.065  0.00  0.00    +0.224 C 
ATOM      5  O   LEU A   1      17.148  -7.335  22.227  0.00  0.00    -0.287 OA
ENDBRANCH   1   4
BRANCH   1   6
ATOM      6  CB  LEU A   1      16.557  -4.258  22.832  0.00  0.00    +0.025 C 
BRANCH   6   7
ATOM      7  CG  LEU A   1      17.158  -2.907  23.223  0.00  0.00    +0.002 C 
ATOM      8  CD2 LEU A   1      16.723  -2.548  24.636  0.00  0.00    +0.000 C 
ATOM      9  CD1 LEU A   1      16.732  -1.828  22.222  0.00  0.00    +0.000 C 
ENDBRANCH   6   7
ENDBRANCH   1   6
TORSDOF 4
REMARK  Name = ../refined-set-2016/1sgu/1sgu_pocket.pdb
REMARK  230 active torsions:
REMARK  status: ('A' for Active; 'I' for Inactive)
REMARK    1  A    between atoms: _1  and  _3
REMARK    2  A    between atoms: _3  and  _4
REMARK    3  A    between atoms: _3  and  _6
REMARK    4  A    between atoms: _6  and  _7
REMARK    5  A    between atoms: _7  and  _8
REMARK    6  A    between atoms: _8  and  _9
REMARK    7  A    between atoms: _18  and  _20
REMARK    8  A    between atoms: _20  and  _21
REMARK    9  A    between atoms: _20  and  _23
REMARK   10  A    between atoms: _23  and  _24
REMARK   11  A    between atoms: _27  and  _29
REMARK   12  A    between atoms: _29  and  _30
REMARK   13  A    between atoms: _29  and  _32
REMARK   14  A    between atoms: _32  and  _33
REMARK   15  A    between atoms: _36  and  _38
REMARK   16  A    between atoms: _38  and  _39
REMARK   17  A    between atoms: _38  and  _41
REMARK   18  A    between atoms: _41  and  _42
REMARK   19  A    between atoms: _45  and  _47
REMARK   20  A    between atoms: _47  and  _48
REMARK   21  A    between atoms: _47  and  _50
REMARK   22  A    between atoms: _50  and  _51
REMARK   23  A    between atoms: _54  and  _56
REMARK   24  A    between atoms: _56  and  _57
REMARK   25  A    between atoms: _59  and  _61
REMARK   26  A    between atoms: _61  and  _62
REMARK   27  A    between atoms: _65  and  _67
REMARK   28  A    between atoms: _67  and  _68
REMARK   29  A    between atoms: _67  and  _70
REMARK   30  A    between atoms: _70  and  _71
REMARK   31  A    between atoms: _74  and  _76
REMARK   32  A    between atoms: _76  and  _77
REMARK   33  A    between atoms: _76  and  _79
REMARK   34  A    between atoms: _79  and  _80
REMARK   35  A    between atoms: _83  and  _85
REMARK   36  A    between atoms: _85  and  _86
REMARK   37  A    between atoms: _85  and  _88
REMARK   38  A    between atoms: _88  and  _89
REMARK   39  A    between atoms: _92  and  _94
REMARK   40  A    between atoms: _94  and  _95
REMARK   41  A    between atoms: _94  and  _97
REMARK   42  A    between atoms: _97  and  _98
REMARK   43  A    between atoms: _101  and  _103
REMARK   44  A    between atoms: _103  and  _104
REMARK   45  A    between atoms: _103  and  _106
REMARK   46  A    between atoms: _106  and  _107
REMARK   47  A    between atoms: _113  and  _115
REMARK   48  A    between atoms: _115  and  _116
REMARK   49  A    between atoms: _115  and  _118
REMARK   50  A    between atoms: _118  and  _119
REMARK   51  A    between atoms: _119  and  _120
REMARK   52  A    between atoms: _120  and  _121
REMARK   53  A    between atoms: _121  and  _122
REMARK   54  A    between atoms: _126  and  _128
REMARK   55  A    between atoms: _128  and  _129
REMARK   56  A    between atoms: _128  and  _131
REMARK   57  A    between atoms: _131  and  _132
REMARK   58  A    between atoms: _132  and  _133
REMARK   59  A    between atoms: _135  and  _137
REMARK   60  A    between atoms: _137  and  _138
REMARK   61  A    between atoms: _137  and  _140
REMARK   62  A    between atoms: _140  and  _141
REMARK   63  A    between atoms: _144  and  _146
REMARK   64  A    between atoms: _146  and  _147
REMARK   65  A    between atoms: _149  and  _151
REMARK   66  A    between atoms: _151  and  _152
REMARK   67  A    between atoms: _154  and  _156
REMARK   68  A    between atoms: _156  and  _157
REMARK   69  A    between atoms: _156  and  _159
REMARK   70  A    between atoms: _159  and  _160
REMARK   71  A    between atoms: _163  and  _165
REMARK   72  A    between atoms: _165  and  _166
REMARK   73  A    between atoms: _168  and  _170
REMARK   74  A    between atoms: _170  and  _171
REMARK   75  A    between atoms: _173  and  _175
REMARK   76  A    between atoms: _175  and  _176
REMARK   77  A    between atoms: _175  and  _178
REMARK   78  A    between atoms: _178  and  _179
REMARK   79  A    between atoms: _185  and  _187
REMARK   80  A    between atoms: _187  and  _188
REMARK   81  A    between atoms: _187  and  _190
REMARK   82  A    between atoms: _193  and  _195
REMARK   83  A    between atoms: _195  and  _196
REMARK   84  A    between atoms: _195  and  _198
REMARK   85  A    between atoms: _201  and  _203
REMARK   86  A    between atoms: _203  and  _204
REMARK   87  A    between atoms: _203  and  _206
REMARK   88  A    between atoms: _206  and  _207
REMARK   89  A    between atoms: _211  and  _212
REMARK   90  A    between atoms: _217  and  _219
REMARK   91  A    between atoms: _219  and  _220
REMARK   92  A    between atoms: _219  and  _222
REMARK   93  A    between atoms: _222  and  _223
REMARK   94  A    between atoms: _227  and  _228
REMARK   95  A    between atoms: _233  and  _235
REMARK   96  A    between atoms: _235  and  _236
REMARK   97  A    between atoms: _239  and  _241
REMARK   98  A    between atoms: _241  and  _242
REMARK   99  A    between atoms: _241  and  _244
REMARK  100  A    between atoms: _244  and  _245
REMARK  101  A    between atoms: _250  and  _252
REMARK  102  A    between atoms: _252  and  _253
REMARK  103  A    between atoms: _252  and  _255
REMARK  104  A    between atoms: _258  and  _260
REMARK  105  A    between atoms: _260  and  _261
REMARK  106  A    between atoms: _260  and  _263
REMARK  107  A    between atoms: _263  and  _264
REMARK  108  A    between atoms: _267  and  _269
REMARK  109  A    between atoms: _269  and  _270
REMARK  110  A    between atoms: _272  and  _274
REMARK  111  A    between atoms: _274  and  _275
REMARK  112  A    between atoms: _274  and  _277
REMARK  113  A    between atoms: _277  and  _278
REMARK  114  A    between atoms: _278  and  _279
REMARK  115  A    between atoms: _279  and  _280
REMARK  116  A    between atoms: _289  and  _291
REMARK  117  A    between atoms: _291  and  _292
REMARK  118  A    between atoms: _291  and  _294
REMARK  119  A    between atoms: _294  and  _295
REMARK  120  A    between atoms: _300  and  _302
REMARK  121  A    between atoms: _302  and  _303
REMARK  122  A    between atoms: _302  and  _305
REMARK  123  A    between atoms: _305  and  _306
REMARK  124  A    between atoms: _306  and  _307
REMARK  125  A    between atoms: _307  and  _308
REMARK  126  A    between atoms: _317  and  _319
REMARK  127  A    between atoms: _319  and  _320
REMARK  128  A    between atoms: _319  and  _322
REMARK  129  A    between atoms: _322  and  _323
REMARK  130  A    between atoms: _326  and  _328
REMARK  131  A    between atoms: _328  and  _329
REMARK  132  A    between atoms: _328  and  _331
REMARK  133  A    between atoms: _331  and  _332
REMARK  134  A    between atoms: _335  and  _337
REMARK  135  A    between atoms: _337  and  _338
REMARK  136  A    between atoms: _337  and  _340
REMARK  137  A    between atoms: _340  and  _341
REMARK  138  A    between atoms: _344  and  _346
REMARK  139  A    between atoms: _346  and  _347
REMARK  140  A    between atoms: _346  and  _349
REMARK  141  A    between atoms: _349  and  _350
REMARK  142  A    between atoms: _353  and  _355
REMARK  143  A    between atoms: _355  and  _356
REMARK  144  A    between atoms: _358  and  _360
REMARK  145  A    between atoms: _360  and  _361
REMARK  146  A    between atoms: _364  and  _366
REMARK  147  A    between atoms: _366  and  _367
REMARK  148  A    between atoms: _366  and  _369
REMARK  149  A    between atoms: _369  and  _370
REMARK  150  A    between atoms: _373  and  _375
REMARK  151  A    between atoms: _375  and  _376
REMARK  152  A    between atoms: _375  and  _378
REMARK  153  A    between atoms: _378  and  _379
REMARK  154  A    between atoms: _382  and  _384
REMARK  155  A    between atoms: _384  and  _385
REMARK  156  A    between atoms: _384  and  _387
REMARK  157  A    between atoms: _387  and  _388
REMARK  158  A    between atoms: _391  and  _393
REMARK  159  A    between atoms: _393  and  _394
REMARK  160  A    between atoms: _393  and  _396
REMARK  161  A    between atoms: _396  and  _397
REMARK  162  A    between atoms: _400  and  _402
REMARK  163  A    between atoms: _402  and  _403
REMARK  164  A    between atoms: _402  and  _405
REMARK  165  A    between atoms: _405  and  _406
REMARK  166  A    between atoms: _412  and  _414
REMARK  167  A    between atoms: _414  and  _415
REMARK  168  A    between atoms: _414  and  _417
REMARK  169  A    between atoms: _417  and  _418
REMARK  170  A    between atoms: _418  and  _419
REMARK  171  A    between atoms: _419  and  _420
REMARK  172  A    between atoms: _420  and  _421
REMARK  173  A    between atoms: _425  and  _427
REMARK  174  A    between atoms: _427  and  _428
REMARK  175  A    between atoms: _427  and  _430
REMARK  176  A    between atoms: _430  and  _431
REMARK  177  A    between atoms: _431  and  _432
REMARK  178  A    between atoms: _434  and  _436
REMARK  179  A    between atoms: _436  and  _437
REMARK  180  A    between atoms: _436  and  _439
REMARK  181  A    between atoms: _439  and  _440
REMARK  182  A    between atoms: _443  and  _445
REMARK  183  A    between atoms: _445  and  _446
REMARK  184  A    between atoms: _448  and  _450
REMARK  185  A    between atoms: _450  and  _451
REMARK  186  A    between atoms: _453  and  _455
REMARK  187  A    between atoms: _455  and  _456
REMARK  188  A    between atoms: _455  and  _458
REMARK  189  A    between atoms: _458  and  _459
REMARK  190  A    between atoms: _462  and  _464
REMARK  191  A    between atoms: _464  and  _465
REMARK  192  A    between atoms: _467  and  _469
REMARK  193  A    between atoms: _469  and  _470
REMARK  194  A    between atoms: _472  and  _474
REMARK  195  A    between atoms: _474  and  _475
REMARK  196  A    between atoms: _474  and  _477
REMARK  197  A    between atoms: _480  and  _482
REMARK  198  A    between atoms: _482  and  _483
REMARK  199  A    between atoms: _482  and  _485
REMARK  200  A    between atoms: _485  and  _486
REMARK  201  A    between atoms: _489  and  _491
REMARK  202  A    between atoms: _491  and  _492
REMARK  203  A    between atoms: _491  and  _494
REMARK  204  A    between atoms: _494  and  _495
REMARK  205  A    between atoms: _499  and  _500
REMARK  206  A    between atoms: _505  and  _507
REMARK  207  A    between atoms: _507  and  _508
REMARK  208  A    between atoms: _511  and  _513
REMARK  209  A    between atoms: _513  and  _514
REMARK  210  A    between atoms: _513  and  _516
REMARK  211  A    between atoms: _516  and  _517
REMARK  212  A    between atoms: _522  and  _524
REMARK  213  A    between atoms: _524  and  _525
REMARK  214  A    between atoms: _524  and  _527
REMARK  215  A    between atoms: _530  and  _532
REMARK  216  A    between atoms: _532  and  _533
REMARK  217  A    between atoms: _532  and  _535
REMARK  218  A    between atoms: _535  and  _536
REMARK  219  A    between atoms: _539  and  _541
REMARK  220  A    between atoms: _541  and  _542
REMARK  221  A    between atoms: _544  and  _546
REMARK  222  A    between atoms: _546  and  _547
REMARK  223  A    between atoms: _546  and  _549
REMARK  224  A    between atoms: _549  and  _550
REMARK  225  A    between atoms: _550  and  _551
REMARK  226  A    between atoms: _551  and  _552
REMARK  227  A    between atoms: _561  and  _563
REMARK  228  A    between atoms: _563  and  _564
REMARK  229  A    between atoms: _563  and  _566
REMARK  230  A    between atoms: _566  and  _567
REMARK                            x       y       z     vdW  Elec       q    Type
REMARK                         _______ _______ _______ _____ _____    ______ ____
ROOT
ATOM      1  CA  VAL A   6      21.973  -6.448  15.526  0.00  0.00    +0.149 C 
ENDROOT
BRANCH   1   3
ATOM      2  C   ASN A   5      20.928  -8.543  14.874  0.00  0.00    +0.241 C 
ATOM      3  N   VAL A   6      20.994  -7.505  15.701  0.00  0.00    -0.297 N 
ATOM      4  H   VAL A   6      20.326  -7.448  16.496  0.00  0.00    +0.150 HD
ATOM      5  O   ASN A   5      21.700  -8.712  13.940  0.00  0.00    -0.273 OA
BRANCH   2   6
ATOM      6  CA  ASN A   5      19.836  -9.560  15.146  0.00  0.00    +0.158 C 
BRANCH   6   8
ATOM      7  C   ALA A   4      18.429  -8.966  13.264  0.00  0.00    +0.241 C 
ATOM      8  N   ASN A   5      19.224  -9.854  13.853  0.00  0.00    -0.297 N 
ATOM      9  H   ASN A   5      19.412 -10.766  13.389  0.00  0.00    +0.150 HD
ATOM     10  O   ALA A   4      18.146  -7.885  13.781  0.00  0.00    -0.273 OA
BRANCH   7  11
ATOM     11  CA  ALA A   4      17.859  -9.349  11.907  0.00  0.00    +0.149 C 
ATOM     12  CB  ALA A   4      18.667  -8.670  10.802  0.00  0.00    +0.031 C 
BRANCH  11  14
ATOM     13  C   PRO A   3      15.625  -9.628  10.969  0.00  0.00    +0.241 C 
ATOM     14  N   ALA A   4      16.446  -8.987  11.798  0.00  0.00    -0.297 N 
ATOM     15  H   ALA A   4      16.074  -8.211  12.382  0.00  0.00    +0.150 HD
ATOM     16  O   PRO A   3      16.000 -10.537  10.235  0.00  0.00    -0.273 OA
BRANCH  13  23
ATOM     17  C   THR A   2      13.744  -8.657  13.281  0.00  0.00    +0.246 C 
ATOM     18  O   THR A   2      13.912  -9.833  13.589  0.00  0.00    -0.273 OA
ATOM     19  N   PRO A   3      13.840  -8.236  12.020  0.00  0.00    -0.272 N 
ATOM     20  CD  PRO A   3      13.541  -6.903  11.473  0.00  0.00    +0.094 C 
ATOM     21  CG  PRO A   3      14.077  -7.005  10.078  0.00  0.00    +0.024 C 
ATOM     22  CB  PRO A   3      13.783  -8.406   9.697  0.00  0.00    +0.031 C 
ATOM     23  CA  PRO A   3      14.164  -9.178  10.956  0.00  0.00    +0.152 C 
BRANCH  17  24
ATOM     24  CA  THR A   2      13.402  -7.625  14.329  0.00  0.00    +0.176 C 
BRANCH  24  27
ATOM     25  C   PRO A   1      11.695  -7.509  16.058  0.00  0.00    +0.239 C 
ATOM     26  O   PRO A   1      11.825  -6.298  16.176  0.00  0.00    -0.274 OA
ATOM     27  N   THR A   2      12.428  -8.232  15.223  0.00  0.00    -0.295 N 
ATOM     28  H   THR A   2      12.303  -9.264  15.207  0.00  0.00    +0.150 HD
BRANCH  25  33
ATOM     29  N   PRO A   1      10.747  -7.999  18.328  0.00  0.00    -0.210 NA
ATOM     30  CD  PRO A   1       9.438  -7.575  18.854  0.00  0.00    +0.089 C 
ATOM     31  CG  PRO A   1       8.492  -8.138  17.824  0.00  0.00    +0.021 C 
ATOM     32  CB  PRO A   1       9.241  -7.884  16.542  0.00  0.00    +0.028 C 
ATOM     33  CA  PRO A   1      10.673  -8.278  16.895  0.00  0.00    +0.149 C 
ENDBRANCH  25  33
ENDBRANCH  24  27
BRANCH  24  34
ATOM     34  CB  THR A   2      14.711  -7.167  15.053  0.00  0.00    +0.137 C 
ATOM     35  CG2 THR A   2      15.341  -8.311  15.844  0.00  0.00    +0.034 C 
BRANCH  34  36
ATOM     36  OG1 THR A   2      15.653  -6.707  14.071  0.00  0.00    -0.382 OA
ATOM     37  HG1 THR A   2      16.484  -6.416  14.524  0.00  0.00    +0.210 HD
ENDBRANCH  34  36
ENDBRANCH  24  34
ENDBRANCH  17  24
ENDBRANCH  13  23
ENDBRANCH  11  14
ENDBRANCH   7  11
ENDBRANCH   6   8
BRANCH   6  38
ATOM     38  CB  ASN A   5      20.469 -10.809  15.759  0.00  0.00    +0.114 C 
BRANCH  38  39
ATOM     39  CG  ASN A   5      19.449 -11.868  16.110  0.00  0.00    +0.222 C 
ATOM     40  OD1 ASN A   5      18.342 -11.556  16.557  0.00  0.00    -0.275 OA
ATOM     41  ND2 ASN A   5      19.826 -13.131  15.943  0.00  0.00    -0.329 N 
ATOM     42 HD21 ASN A   5      19.177 -13.905  16.193  0.00  0.00    +0.145 HD
ATOM     43 HD22 ASN A   5      20.770 -13.346  15.563  0.00  0.00    +0.145 HD
ENDBRANCH  38  39
ENDBRANCH   6  38
ENDBRANCH   2   6
ENDBRANCH   1   3
BRANCH   1  44
ATOM     44  C   VAL A   6      22.809  -6.091  16.756  0.00  0.00    +0.241 C 
ATOM     45  O   VAL A   6      22.281  -5.959  17.860  0.00  0.00    -0.273 OA
ATOM     46  N   ILE A   7      24.117  -5.929  16.558  0.00  0.00    -0.297 N 
ATOM     47  H   ILE A   7      24.519  -6.113  15.617  0.00  0.00    +0.150 HD
BRANCH  46  48
ATOM     48  CA  ILE A   7      24.997  -5.495  17.648  0.00  0.00    +0.149 C 
BRANCH  48  49
ATOM     49  C   ILE A   7      25.204  -4.001  17.365  0.00  0.00    +0.241 C 
ATOM     50  N   GLY A   8      24.728  -3.146  18.267  0.00  0.00    -0.295 N 
ATOM     51  H   GLY A   8      24.261  -3.514  19.120  0.00  0.00    +0.150 HD
ATOM     52  O   ILE A   7      25.781  -3.642  16.338  0.00  0.00    -0.273 OA
BRANCH  50  53
ATOM     53  CA  GLY A   8      24.848  -1.704  18.084  0.00  0.00    +0.176 C 
BRANCH  53  54
ATOM     54  C   GLY A   8      26.120  -1.097  18.642  0.00  0.00    +0.243 C 
ATOM     55  O   GLY A   8      26.997  -1.813  19.130  0.00  0.00    -0.273 OA
ATOM     56  N   ARG A   9      26.215   0.229  18.572  0.00  0.00    -0.297 N 
ATOM     57  H   ARG A   9      25.426   0.766  18.160  0.00  0.00    +0.150 HD
BRANCH  56  58
ATOM     58  CA  ARG A   9      27.386   0.957  19.052  0.00  0.00    +0.149 C 
BRANCH  58  59
ATOM     59  C   ARG A   9      27.619   0.796  20.555  0.00  0.00    +0.241 C 
ATOM     60  N   ASN A  10      26.547   0.582  21.328  0.00  0.00    -0.298 N 
ATOM     61  H   ASN A  10      25.607   0.527  20.886  0.00  0.00    +0.150 HD
ATOM     62  O   ARG A   9      28.759   0.868  21.002  0.00  0.00    -0.273 OA
BRANCH  60  63
ATOM     63  CA  ASN A  10      26.663   0.423  22.782  0.00  0.00    +0.146 C 
BRANCH  63  64
ATOM     64  C   ASN A  10      27.593  -0.734  23.146  0.00  0.00    +0.227 C 
ATOM     65  O   ASN A  10      28.252  -0.707  24.183  0.00  0.00    -0.286 OA
ENDBRANCH  63  64
BRANCH  63  66
ATOM     66  CB  ASN A  10      25.282   0.191  23.423  0.00  0.00    +0.112 C 
BRANCH  66  67
ATOM     67  CG  ASN A  10      24.734  -1.197  23.141  0.00  0.00    +0.222 C 
ATOM     68  ND2 ASN A  10      24.407  -1.935  24.203  0.00  0.00    -0.329 N 
ATOM     69 HD21 ASN A  10      24.530  -1.550  25.161  0.00  0.00    +0.145 HD
ATOM     70 HD22 ASN A  10      24.029  -2.895  24.073  0.00  0.00    +0.145 HD
ATOM     71  OD1 ASN A  10      24.608  -1.603  21.987  0.00  0.00    -0.275 OA
ENDBRANCH  66  67
ENDBRANCH  63  66
ENDBRANCH  60  63
ENDBRANCH  58  59
BRANCH  58  72
ATOM     72  CB  ARG A   9      27.265   2.458  18.721  0.00  0.00    +0.033 C 
BRANCH  72  73
ATOM     73  CG  ARG A   9      27.287   2.780  17.214  0.00  0.00    +0.045 C 
BRANCH  73  74
ATOM     74  CD  ARG A   9      27.411   4.286  16.916  0.00  0.00    +0.174 C 
BRANCH  74  75
ATOM     75  NE  ARG A   9      26.237   5.037  17.359  0.00  0.00    -0.265 N 
ATOM     76  CZ  ARG A   9      26.142   5.682  18.518  0.00  0.00    +0.342 C 
ATOM     77  NH2 ARG A   9      27.162   5.695  19.373  0.00  0.00    -0.292 N 
ATOM     78 HH21 ARG A   9      27.077   6.203  20.277  0.00  0.00    +0.255 HD
ATOM     79 HH22 ARG A   9      28.044   5.197  19.137  0.00  0.00    +0.255 HD
ATOM     80  NH1 ARG A   9      25.009   6.283  18.840  0.00  0.00    -0.292 N 
ATOM     81 HH11 ARG A   9      24.928   6.789  19.745  0.00  0.00    +0.255 HD
ATOM     82 HH12 ARG A   9      24.199   6.249  18.188  0.00  0.00    +0.255 HD
ATOM     83  HE  ARG A   9      25.416   5.069  16.721  0.00  0.00    +0.259 HD
ENDBRANCH  74  75
ENDBRANCH  73  74
ENDBRANCH  72  73
ENDBRANCH  58  72
ENDBRANCH  56  58
ENDBRANCH  53  54
ENDBRANCH  50  53
ENDBRANCH  48  49
BRANCH  48  84
ATOM     84  CB  ILE A   7      26.380  -6.173  17.614  0.00  0.00    +0.027 C 
ATOM     85  CG2 ILE A   7      27.219  -5.675  18.801  0.00  0.00    +0.002 C 
BRANCH  84  86
ATOM     86  CG1 ILE A   7      26.230  -7.701  17.631  0.00  0.00    +0.002 C 
ATOM     87  CD1 ILE A   7      25.534  -8.248  18.851  0.00  0.00    +0.000 C 
ENDBRANCH  84  86
ENDBRANCH  48  84
ENDBRANCH  46  48
ENDBRANCH   1  44
BRANCH   1  88
ATOM     88  CB  VAL A   6      21.264  -5.152  15.042  0.00  0.00    +0.027 C 
ATOM     89  CG2 VAL A   6      22.121  -3.928  15.339  0.00  0.00    +0.002 C 
ATOM     90  CG1 VAL A   6      20.973  -5.259  13.564  0.00  0.00    +0.002 C 
ENDBRANCH   1  88
TORSDOF 31
REMARK  Name = ../refined-set-2016/1sgu/1sgu_pocket.pdb
REMARK  230 active torsions:
REMARK  status: ('A' for Active; 'I' for Inactive)
REMARK    1  A    between atoms: _1  and  _3
REMARK    2  A    between atoms: _3  and  _4
REMARK    3  A    between atoms: _3  and  _6
REMARK    4  A    between atoms: _6  and  _7
REMARK    5  A    between atoms: _7  and  _8
REMARK    6  A    between atoms: _8  and  _9
REMARK    7  A    between atoms: _18  and  _20
REMARK    8  A    between atoms: _20  and  _21
REMARK    9  A    between atoms: _20  and  _23
REMARK   10  A    between atoms: _23  and  _24
REMARK   11  A    between atoms: _27  and  _29
REMARK   12  A    between atoms: _29  and  _30
REMARK   13  A    between atoms: _29  and  _32
REMARK   14  A    between atoms: _32  and  _33
REMARK   15  A    between atoms: _36  and  _38
REMARK   16  A    between atoms: _38  and  _39
REMARK   17  A    between atoms: _38  and  _41
REMARK   18  A    between atoms: _41  and  _42
REMARK   19  A    between atoms: _45  and  _47
REMARK   20  A    between atoms: _47  and  _48
REMARK   21  A    between atoms: _47  and  _50
REMARK   22  A    between atoms: _50  and  _51
REMARK   23  A    between atoms: _54  and  _56
REMARK   24  A    between atoms: _56  and  _57
REMARK   25  A    between atoms: _59  and  _61
REMARK   26  A    between atoms: _61  and  _62
REMARK   27  A    between atoms: _65  and  _67
REMARK   28  A    between atoms: _67  and  _68
REMARK   29  A    between atoms: _67  and  _70
REMARK   30  A    between atoms: _70  and  _71
REMARK   31  A    between atoms: _74  and  _76
REMARK   32  A    between atoms: _76  and  _77
REMARK   33  A    between atoms: _76  and  _79
REMARK   34  A    between atoms: _79  and  _80
REMARK   35  A    between atoms: _83  and  _85
REMARK   36  A    between atoms: _85  and  _86
REMARK   37  A    between atoms: _85  and  _88
REMARK   38  A    between atoms: _88  and  _89
REMARK   39  A    between atoms: _92  and  _94
REMARK   40  A    between atoms: _94  and  _95
REMARK   41  A    between atoms: _94  and  _97
REMARK   42  A    between atoms: _97  and  _98
REMARK   43  A    between atoms: _101  and  _103
REMARK   44  A    between atoms: _103  and  _104
REMARK   45  A    between atoms: _103  and  _106
REMARK   46  A    between atoms: _106  and  _107
REMARK   47  A    between atoms: _113  and  _115
REMARK   48  A    between atoms: _115  and  _116
REMARK   49  A    between atoms: _115  and  _118
REMARK   50  A    between atoms: _118  and  _119
REMARK   51  A    between atoms: _119  and  _120
REMARK   52  A    between atoms: _120  and  _121
REMARK   53  A    between atoms: _121  and  _122
REMARK   54  A    between atoms: _126  and  _128
REMARK   55  A    between atoms: _128  and  _129
REMARK   56  A    between atoms: _128  and  _131
REMARK   57  A    between atoms: _131  and  _132
REMARK   58  A    between atoms: _132  and  _133
REMARK   59  A    between atoms: _135  and  _137
REMARK   60  A    between atoms: _137  and  _138
REMARK   61  A    between atoms: _137  and  _140
REMARK   62  A    between atoms: _140  and  _141
REMARK   63  A    between atoms: _144  and  _146
REMARK   64  A    between atoms: _146  and  _147
REMARK   65  A    between atoms: _149  and  _151
REMARK   66  A    between atoms: _151  and  _152
REMARK   67  A    between atoms: _154  and  _156
REMARK   68  A    between atoms: _156  and  _157
REMARK   69  A    between atoms: _156  and  _159
REMARK   70  A    between atoms: _159  and  _160
REMARK   71  A    between atoms: _163  and  _165
REMARK   72  A    between atoms: _165  and  _166
REMARK   73  A    between atoms: _168  and  _170
REMARK   74  A    between atoms: _170  and  _171
REMARK   75  A    between atoms: _173  and  _175
REMARK   76  A    between atoms: _175  and  _176
REMARK   77  A    between atoms: _175  and  _178
REMARK   78  A    between atoms: _178  and  _179
REMARK   79  A    between atoms: _185  and  _187
REMARK   80  A    between atoms: _187  and  _188
REMARK   81  A    between atoms: _187  and  _190
REMARK   82  A    between atoms: _193  and  _195
REMARK   83  A    between atoms: _195  and  _196
REMARK   84  A    between atoms: _195  and  _198
REMARK   85  A    between atoms: _201  and  _203
REMARK   86  A    between atoms: _203  and  _204
REMARK   87  A    between atoms: _203  and  _206
REMARK   88  A    between atoms: _206  and  _207
REMARK   89  A    between atoms: _211  and  _212
REMARK   90  A    between atoms: _217  and  _219
REMARK   91  A    between atoms: _219  and  _220
REMARK   92  A    between atoms: _219  and  _222
REMARK   93  A    between atoms: _222  and  _223
REMARK   94  A    between atoms: _227  and  _228
REMARK   95  A    between atoms: _233  and  _235
REMARK   96  A    between atoms: _235  and  _236
REMARK   97  A    between atoms: _239  and  _241
REMARK   98  A    between atoms: _241  and  _242
REMARK   99  A    between atoms: _241  and  _244
REMARK  100  A    between atoms: _244  and  _245
REMARK  101  A    between atoms: _250  and  _252
REMARK  102  A    between atoms: _252  and  _253
REMARK  103  A    between atoms: _252  and  _255
REMARK  104  A    between atoms: _258  and  _260
REMARK  105  A    between atoms: _260  and  _261
REMARK  106  A    between atoms: _260  and  _263
REMARK  107  A    between atoms: _263  and  _264
REMARK  108  A    between atoms: _267  and  _269
REMARK  109  A    between atoms: _269  and  _270
REMARK  110  A    between atoms: _272  and  _274
REMARK  111  A    between atoms: _274  and  _275
REMARK  112  A    between atoms: _274  and  _277
REMARK  113  A    between atoms: _277  and  _278
REMARK  114  A    between atoms: _278  and  _279
REMARK  115  A    between atoms: _279  and  _280
REMARK  116  A    between atoms: _289  and  _291
REMARK  117  A    between atoms: _291  and  _292
REMARK  118  A    between atoms: _291  and  _294
REMARK  119  A    between atoms: _294  and  _295
REMARK  120  A    between atoms: _300  and  _302
REMARK  121  A    between atoms: _302  and  _303
REMARK  122  A    between atoms: _302  and  _305
REMARK  123  A    between atoms: _305  and  _306
REMARK  124  A    between atoms: _306  and  _307
REMARK  125  A    between atoms: _307  and  _308
REMARK  126  A    between atoms: _317  and  _319
REMARK  127  A    between atoms: _319  and  _320
REMARK  128  A    between atoms: _319  and  _322
REMARK  129  A    between atoms: _322  and  _323
REMARK  130  A    between atoms: _326  and  _328
REMARK  131  A    between atoms: _328  and  _329
REMARK  132  A    between atoms: _328  and  _331
REMARK  133  A    between atoms: _331  and  _332
REMARK  134  A    between atoms: _335  and  _337
REMARK  135  A    between atoms: _337  and  _338
REMARK  136  A    between atoms: _337  and  _340
REMARK  137  A    between atoms: _340  and  _341
REMARK  138  A    between atoms: _344  and  _346
REMARK  139  A    between atoms: _346  and  _347
REMARK  140  A    between atoms: _346  and  _349
REMARK  141  A    between atoms: _349  and  _350
REMARK  142  A    between atoms: _353  and  _355
REMARK  143  A    between atoms: _355  and  _356
REMARK  144  A    between atoms: _358  and  _360
REMARK  145  A    between atoms: _360  and  _361
REMARK  146  A    between atoms: _364  and  _366
REMARK  147  A    between atoms: _366  and  _367
REMARK  148  A    between atoms: _366  and  _369
REMARK  149  A    between atoms: _369  and  _370
REMARK  150  A    between atoms: _373  and  _375
REMARK  151  A    between atoms: _375  and  _376
REMARK  152  A    between atoms: _375  and  _378
REMARK  153  A    between atoms: _378  and  _379
REMARK  154  A    between atoms: _382  and  _384
REMARK  155  A    between atoms: _384  and  _385
REMARK  156  A    between atoms: _384  and  _387
REMARK  157  A    between atoms: _387  and  _388
REMARK  158  A    between atoms: _391  and  _393
REMARK  159  A    between atoms: _393  and  _394
REMARK  160  A    between atoms: _393  and  _396
REMARK  161  A    between atoms: _396  and  _397
REMARK  162  A    between atoms: _400  and  _402
REMARK  163  A    between atoms: _402  and  _403
REMARK  164  A    between atoms: _402  and  _405
REMARK  165  A    between atoms: _405  and  _406
REMARK  166  A    between atoms: _412  and  _414
REMARK  167  A    between atoms: _414  and  _415
REMARK  168  A    between atoms: _414  and  _417
REMARK  169  A    between atoms: _417  and  _418
REMARK  170  A    between atoms: _418  and  _419
REMARK  171  A    between atoms: _419  and  _420
REMARK  172  A    between atoms: _420  and  _421
REMARK  173  A    between atoms: _425  and  _427
REMARK  174  A    between atoms: _427  and  _428
REMARK  175  A    between atoms: _427  and  _430
REMARK  176  A    between atoms: _430  and  _431
REMARK  177  A    between atoms: _431  and  _432
REMARK  178  A    between atoms: _434  and  _436
REMARK  179  A    between atoms: _436  and  _437
REMARK  180  A    between atoms: _436  and  _439
REMARK  181  A    between atoms: _439  and  _440
REMARK  182  A    between atoms: _443  and  _445
REMARK  183  A    between atoms: _445  and  _446
REMARK  184  A    between atoms: _448  and  _450
REMARK  185  A    between atoms: _450  and  _451
REMARK  186  A    between atoms: _453  and  _455
REMARK  187  A    between atoms: _455  and  _456
REMARK  188  A    between atoms: _455  and  _458
REMARK  189  A    between atoms: _458  and  _459
REMARK  190  A    between atoms: _462  and  _464
REMARK  191  A    between atoms: _464  and  _465
REMARK  192  A    between atoms: _467  and  _469
REMARK  193  A    between atoms: _469  and  _470
REMARK  194  A    between atoms: _472  and  _474
REMARK  195  A    between atoms: _474  and  _475
REMARK  196  A    between atoms: _474  and  _477
REMARK  197  A    between atoms: _480  and  _482
REMARK  198  A    between atoms: _482  and  _483
REMARK  199  A    between atoms: _482  and  _485
REMARK  200  A    between atoms: _485  and  _486
REMARK  201  A    between atoms: _489  and  _491
REMARK  202  A    between atoms: _491  and  _492
REMARK  203  A    between atoms: _491  and  _494
REMARK  204  A    between atoms: _494  and  _495
REMARK  205  A    between atoms: _499  and  _500
REMARK  206  A    between atoms: _505  and  _507
REMARK  207  A    between atoms: _507  and  _508
REMARK  208  A    between atoms: _511  and  _513
REMARK  209  A    between atoms: _513  and  _514
REMARK  210  A    between atoms: _513  and  _516
REMARK  211  A    between atoms: _516  and  _517
REMARK  212  A    between atoms: _522  and  _524
REMARK  213  A    between atoms: _524  and  _525
REMARK  214  A    between atoms: _524  and  _527
REMARK  215  A    between atoms: _530  and  _532
REMARK  216  A    between atoms: _532  and  _533
REMARK  217  A    between atoms: _532  and  _535
REMARK  218  A    between atoms: _535  and  _536
REMARK  219  A    between atoms: _539  and  _541
REMARK  220  A    between atoms: _541  and  _542
REMARK  221  A    between atoms: _544  and  _546
REMARK  222  A    between atoms: _546  and  _547
REMARK  223  A    between atoms: _546  and  _549
REMARK  224  A    between atoms: _549  and  _550
REMARK  225  A    between atoms: _550  and  _551
REMARK  226  A    between atoms: _551  and  _552
REMARK  227  A    between atoms: _561  and  _563
REMARK  228  A    between atoms: _563  and  _564
REMARK  229  A    between atoms: _563  and  _566
REMARK  230  A    between atoms: _566  and  _567
REMARK                            x       y       z     vdW  Elec       q    Type
REMARK                         _______ _______ _______ _____ _____    ______ ____
ROOT
ATOM      1  NE  ARG A   1      21.998   8.516  16.335  0.00  0.00    -0.265 N 
ATOM      2  HE  ARG A   1      22.186   7.775  17.041  0.00  0.00    +0.259 HD
ATOM      3  CZ  ARG A   1      20.729   8.802  16.059  0.00  0.00    +0.342 C 
ATOM      4  NH2 ARG A   1      19.753   8.148  16.683  0.00  0.00    -0.292 N 
ATOM      5 HH21 ARG A   1      19.983   7.415  17.384  0.00  0.00    +0.255 HD
ATOM      6 HH22 ARG A   1      18.759   8.369  16.469  0.00  0.00    +0.255 HD
ATOM      7  NH1 ARG A   1      20.434   9.739  15.162  0.00  0.00    -0.292 N 
ATOM      8 HH11 ARG A   1      19.440   9.960  14.949  0.00  0.00    +0.255 HD
ATOM      9 HH12 ARG A   1      21.197  10.250  14.674  0.00  0.00    +0.255 HD
ENDROOT
BRANCH   1  10
ATOM     10  CD  ARG A   1      23.145   9.172  15.714  0.00  0.00    +0.174 C 
BRANCH  10  11
ATOM     11  CG  ARG A   1      24.452   8.582  16.214  0.00  0.00    +0.045 C 
BRANCH  11  12
ATOM     12  CB  ARG A   1      25.603   8.964  15.300  0.00  0.00    +0.029 C 
BRANCH  12  13
ATOM     13  CA  ARG A   1      26.928   8.282  15.648  0.00  0.00    +0.133 C 
BRANCH  13  14
ATOM     14  N   ARG A   1      27.399   8.709  16.959  0.00  0.00    -0.239 NA
ATOM     15  H   ARG A   1      26.809   9.343  17.535  0.00  0.00    +0.142 HD
ENDBRANCH  13  14
BRANCH  13  16
ATOM     16  C   ARG A   1      27.968   8.637  14.601  0.00  0.00    +0.224 C 
ATOM     17  O   ARG A   1      28.517   9.742  14.603  0.00  0.00    -0.287 OA
ENDBRANCH  13  16
ENDBRANCH  12  13
ENDBRANCH  11  12
ENDBRANCH  10  11
ENDBRANCH   1  10
TORSDOF 6
REMARK  Name = ../refined-set-2016/1sgu/1sgu_pocket.pdb
REMARK  230 active torsions:
REMARK  status: ('A' for Active; 'I' for Inactive)
REMARK    1  A    between atoms: _1  and  _3
REMARK    2  A    between atoms: _3  and  _4
REMARK    3  A    between atoms: _3  and  _6
REMARK    4  A    between atoms: _6  and  _7
REMARK    5  A    between atoms: _7  and  _8
REMARK    6  A    between atoms: _8  and  _9
REMARK    7  A    between atoms: _18  and  _20
REMARK    8  A    between atoms: _20  and  _21
REMARK    9  A    between atoms: _20  and  _23
REMARK   10  A    between atoms: _23  and  _24
REMARK   11  A    between atoms: _27  and  _29
REMARK   12  A    between atoms: _29  and  _30
REMARK   13  A    between atoms: _29  and  _32
REMARK   14  A    between atoms: _32  and  _33
REMARK   15  A    between atoms: _36  and  _38
REMARK   16  A    between atoms: _38  and  _39
REMARK   17  A    between atoms: _38  and  _41
REMARK   18  A    between atoms: _41  and  _42
REMARK   19  A    between atoms: _45  and  _47
REMARK   20  A    between atoms: _47  and  _48
REMARK   21  A    between atoms: _47  and  _50
REMARK   22  A    between atoms: _50  and  _51
REMARK   23  A    between atoms: _54  and  _56
REMARK   24  A    between atoms: _56  and  _57
REMARK   25  A    between atoms: _59  and  _61
REMARK   26  A    between atoms: _61  and  _62
REMARK   27  A    between atoms: _65  and  _67
REMARK   28  A    between atoms: _67  and  _68
REMARK   29  A    between atoms: _67  and  _70
REMARK   30  A    between atoms: _70  and  _71
REMARK   31  A    between atoms: _74  and  _76
REMARK   32  A    between atoms: _76  and  _77
REMARK   33  A    between atoms: _76  and  _79
REMARK   34  A    between atoms: _79  and  _80
REMARK   35  A    between atoms: _83  and  _85
REMARK   36  A    between atoms: _85  and  _86
REMARK   37  A    between atoms: _85  and  _88
REMARK   38  A    between atoms: _88  and  _89
REMARK   39  A    between atoms: _92  and  _94
REMARK   40  A    between atoms: _94  and  _95
REMARK   41  A    between atoms: _94  and  _97
REMARK   42  A    between atoms: _97  and  _98
REMARK   43  A    between atoms: _101  and  _103
REMARK   44  A    between atoms: _103  and  _104
REMARK   45  A    between atoms: _103  and  _106
REMARK   46  A    between atoms: _106  and  _107
REMARK   47  A    between atoms: _113  and  _115
REMARK   48  A    between atoms: _115  and  _116
REMARK   49  A    between atoms: _115  and  _118
REMARK   50  A    between atoms: _118  and  _119
REMARK   51  A    between atoms: _119  and  _120
REMARK   52  A    between atoms: _120  and  _121
REMARK   53  A    between atoms: _121  and  _122
REMARK   54  A    between atoms: _126  and  _128
REMARK   55  A    between atoms: _128  and  _129
REMARK   56  A    between atoms: _128  and  _131
REMARK   57  A    between atoms: _131  and  _132
REMARK   58  A    between atoms: _132  and  _133
REMARK   59  A    between atoms: _135  and  _137
REMARK   60  A    between atoms: _137  and  _138
REMARK   61  A    between atoms: _137  and  _140
REMARK   62  A    between atoms: _140  and  _141
REMARK   63  A    between atoms: _144  and  _146
REMARK   64  A    between atoms: _146  and  _147
REMARK   65  A    between atoms: _149  and  _151
REMARK   66  A    between atoms: _151  and  _152
REMARK   67  A    between atoms: _154  and  _156
REMARK   68  A    between atoms: _156  and  _157
REMARK   69  A    between atoms: _156  and  _159
REMARK   70  A    between atoms: _159  and  _160
REMARK   71  A    between atoms: _163  and  _165
REMARK   72  A    between atoms: _165  and  _166
REMARK   73  A    between atoms: _168  and  _170
REMARK   74  A    between atoms: _170  and  _171
REMARK   75  A    between atoms: _173  and  _175
REMARK   76  A    between atoms: _175  and  _176
REMARK   77  A    between atoms: _175  and  _178
REMARK   78  A    between atoms: _178  and  _179
REMARK   79  A    between atoms: _185  and  _187
REMARK   80  A    between atoms: _187  and  _188
REMARK   81  A    between atoms: _187  and  _190
REMARK   82  A    between atoms: _193  and  _195
REMARK   83  A    between atoms: _195  and  _196
REMARK   84  A    between atoms: _195  and  _198
REMARK   85  A    between atoms: _201  and  _203
REMARK   86  A    between atoms: _203  and  _204
REMARK   87  A    between atoms: _203  and  _206
REMARK   88  A    between atoms: _206  and  _207
REMARK   89  A    between atoms: _211  and  _212
REMARK   90  A    between atoms: _217  and  _219
REMARK   91  A    between atoms: _219  and  _220
REMARK   92  A    between atoms: _219  and  _222
REMARK   93  A    between atoms: _222  and  _223
REMARK   94  A    between atoms: _227  and  _228
REMARK   95  A    between atoms: _233  and  _235
REMARK   96  A    between atoms: _235  and  _236
REMARK   97  A    between atoms: _239  and  _241
REMARK   98  A    between atoms: _241  and  _242
REMARK   99  A    between atoms: _241  and  _244
REMARK  100  A    between atoms: _244  and  _245
REMARK  101  A    between atoms: _250  and  _252
REMARK  102  A    between atoms: _252  and  _253
REMARK  103  A    between atoms: _252  and  _255
REMARK  104  A    between atoms: _258  and  _260
REMARK  105  A    between atoms: _260  and  _261
REMARK  106  A    between atoms: _260  and  _263
REMARK  107  A    between atoms: _263  and  _264
REMARK  108  A    between atoms: _267  and  _269
REMARK  109  A    between atoms: _269  and  _270
REMARK  110  A    between atoms: _272  and  _274
REMARK  111  A    between atoms: _274  and  _275
REMARK  112  A    between atoms: _274  and  _277
REMARK  113  A    between atoms: _277  and  _278
REMARK  114  A    between atoms: _278  and  _279
REMARK  115  A    between atoms: _279  and  _280
REMARK  116  A    between atoms: _289  and  _291
REMARK  117  A    between atoms: _291  and  _292
REMARK  118  A    between atoms: _291  and  _294
REMARK  119  A    between atoms: _294  and  _295
REMARK  120  A    between atoms: _300  and  _302
REMARK  121  A    between atoms: _302  and  _303
REMARK  122  A    between atoms: _302  and  _305
REMARK  123  A    between atoms: _305  and  _306
REMARK  124  A    between atoms: _306  and  _307
REMARK  125  A    between atoms: _307  and  _308
REMARK  126  A    between atoms: _317  and  _319
REMARK  127  A    between atoms: _319  and  _320
REMARK  128  A    between atoms: _319  and  _322
REMARK  129  A    between atoms: _322  and  _323
REMARK  130  A    between atoms: _326  and  _328
REMARK  131  A    between atoms: _328  and  _329
REMARK  132  A    between atoms: _328  and  _331
REMARK  133  A    between atoms: _331  and  _332
REMARK  134  A    between atoms: _335  and  _337
REMARK  135  A    between atoms: _337  and  _338
REMARK  136  A    between atoms: _337  and  _340
REMARK  137  A    between atoms: _340  and  _341
REMARK  138  A    between atoms: _344  and  _346
REMARK  139  A    between atoms: _346  and  _347
REMARK  140  A    between atoms: _346  and  _349
REMARK  141  A    between atoms: _349  and  _350
REMARK  142  A    between atoms: _353  and  _355
REMARK  143  A    between atoms: _355  and  _356
REMARK  144  A    between atoms: _358  and  _360
REMARK  145  A    between atoms: _360  and  _361
REMARK  146  A    between atoms: _364  and  _366
REMARK  147  A    between atoms: _366  and  _367
REMARK  148  A    between atoms: _366  and  _369
REMARK  149  A    between atoms: _369  and  _370
REMARK  150  A    between atoms: _373  and  _375
REMARK  151  A    between atoms: _375  and  _376
REMARK  152  A    between atoms: _375  and  _378
REMARK  153  A    between atoms: _378  and  _379
REMARK  154  A    between atoms: _382  and  _384
REMARK  155  A    between atoms: _384  and  _385
REMARK  156  A    between atoms: _384  and  _387
REMARK  157  A    between atoms: _387  and  _388
REMARK  158  A    between atoms: _391  and  _393
REMARK  159  A    between atoms: _393  and  _394
REMARK  160  A    between atoms: _393  and  _396
REMARK  161  A    between atoms: _396  and  _397
REMARK  162  A    between atoms: _400  and  _402
REMARK  163  A    between atoms: _402  and  _403
REMARK  164  A    between atoms: _402  and  _405
REMARK  165  A    between atoms: _405  and  _406
REMARK  166  A    between atoms: _412  and  _414
REMARK  167  A    between atoms: _414  and  _415
REMARK  168  A    between atoms: _414  and  _417
REMARK  169  A    between atoms: _417  and  _418
REMARK  170  A    between atoms: _418  and  _419
REMARK  171  A    between atoms: _419  and  _420
REMARK  172  A    between atoms: _420  and  _421
REMARK  173  A    between atoms: _425  and  _427
REMARK  174  A    between atoms: _427  and  _428
REMARK  175  A    between atoms: _427  and  _430
REMARK  176  A    between atoms: _430  and  _431
REMARK  177  A    between atoms: _431  and  _432
REMARK  178  A    between atoms: _434  and  _436
REMARK  179  A    between atoms: _436  and  _437
REMARK  180  A    between atoms: _436  and  _439
REMARK  181  A    between atoms: _439  and  _440
REMARK  182  A    between atoms: _443  and  _445
REMARK  183  A    between atoms: _445  and  _446
REMARK  184  A    between atoms: _448  and  _450
REMARK  185  A    between atoms: _450  and  _451
REMARK  186  A    between atoms: _453  and  _455
REMARK  187  A    between atoms: _455  and  _456
REMARK  188  A    between atoms: _455  and  _458
REMARK  189  A    between atoms: _458  and  _459
REMARK  190  A    between atoms: _462  and  _464
REMARK  191  A    between atoms: _464  and  _465
REMARK  192  A    between atoms: _467  and  _469
REMARK  193  A    between atoms: _469  and  _470
REMARK  194  A    between atoms: _472  and  _474
REMARK  195  A    between atoms: _474  and  _475
REMARK  196  A    between atoms: _474  and  _477
REMARK  197  A    between atoms: _480  and  _482
REMARK  198  A    between atoms: _482  and  _483
REMARK  199  A    between atoms: _482  and  _485
REMARK  200  A    between atoms: _485  and  _486
REMARK  201  A    between atoms: _489  and  _491
REMARK  202  A    between atoms: _491  and  _492
REMARK  203  A    between atoms: _491  and  _494
REMARK  204  A    between atoms: _494  and  _495
REMARK  205  A    between atoms: _499  and  _500
REMARK  206  A    between atoms: _505  and  _507
REMARK  207  A    between atoms: _507  and  _508
REMARK  208  A    between atoms: _511  and  _513
REMARK  209  A    between atoms: _513  and  _514
REMARK  210  A    between atoms: _513  and  _516
REMARK  211  A    between atoms: _516  and  _517
REMARK  212  A    between atoms: _522  and  _524
REMARK  213  A    between atoms: _524  and  _525
REMARK  214  A    between atoms: _524  and  _527
REMARK  215  A    between atoms: _530  and  _532
REMARK  216  A    between atoms: _532  and  _533
REMARK  217  A    between atoms: _532  and  _535
REMARK  218  A    between atoms: _535  and  _536
REMARK  219  A    between atoms: _539  and  _541
REMARK  220  A    between atoms: _541  and  _542
REMARK  221  A    between atoms: _544  and  _546
REMARK  222  A    between atoms: _546  and  _547
REMARK  223  A    between atoms: _546  and  _549
REMARK  224  A    between atoms: _549  and  _550
REMARK  225  A    between atoms: _550  and  _551
REMARK  226  A    between atoms: _551  and  _552
REMARK  227  A    between atoms: _561  and  _563
REMARK  228  A    between atoms: _563  and  _564
REMARK  229  A    between atoms: _563  and  _566
REMARK  230  A    between atoms: _566  and  _567
REMARK                            x       y       z     vdW  Elec       q    Type
REMARK                         _______ _______ _______ _____ _____    ______ ____
ROOT
ATOM      1  C   ALA A   6      22.927  -1.690   4.532  0.00  0.00    +0.241 C 
ATOM      2  O   ALA A   6      24.077  -1.383   4.250  0.00  0.00    -0.273 OA
ATOM      3  N   ASP A   7      22.165  -2.440   3.738  0.00  0.00    -0.297 N 
ATOM      4  H   ASP A   7      21.199  -2.687   4.034  0.00  0.00    +0.150 HD
ENDROOT
BRANCH   1   5
ATOM      5  CA  ALA A   6      22.306  -1.213   5.839  0.00  0.00    +0.149 C 
ATOM      6  CB  ALA A   6      21.999   0.290   5.747  0.00  0.00    +0.031 C 
BRANCH   5   9
ATOM      7  C   GLY A   5      22.974  -2.500   7.794  0.00  0.00    +0.243 C 
ATOM      8  O   GLY A   5      22.067  -3.307   7.619  0.00  0.00    -0.273 OA
ATOM      9  N   ALA A   6      23.176  -1.471   6.982  0.00  0.00    -0.297 N 
ATOM     10  H   ALA A   6      23.975  -0.831   7.165  0.00  0.00    +0.150 HD
BRANCH   7  11
ATOM     11  CA  GLY A   5      23.929  -2.661   8.975  0.00  0.00    +0.176 C 
BRANCH  11  13
ATOM     12  C   THR A   4      26.156  -2.101   8.213  0.00  0.00    +0.243 C 
ATOM     13  N   GLY A   5      25.074  -1.773   8.917  0.00  0.00    -0.295 N 
ATOM     14  H   GLY A   5      25.050  -0.869   9.431  0.00  0.00    +0.150 HD
ATOM     15  O   THR A   4      26.246  -3.142   7.567  0.00  0.00    -0.273 OA
BRANCH  12  16
ATOM     16  CA  THR A   4      27.307  -1.095   8.214  0.00  0.00    +0.176 C 
BRANCH  16  18
ATOM     17  C   ASP A   3      26.054   0.967   7.936  0.00  0.00    +0.241 C 
ATOM     18  N   THR A   4      26.923   0.244   8.640  0.00  0.00    -0.295 N 
ATOM     19  H   THR A   4      27.334   0.642   9.508  0.00  0.00    +0.150 HD
ATOM     20  O   ASP A   3      25.501   0.547   6.920  0.00  0.00    -0.273 OA
BRANCH  17  21
ATOM     21  CA  ASP A   3      25.737   2.361   8.465  0.00  0.00    +0.160 C 
BRANCH  21  24
ATOM     22  C   LEU A   2      27.219   4.251   8.630  0.00  0.00    +0.241 C 
ATOM     23  O   LEU A   2      27.376   4.067   9.839  0.00  0.00    -0.273 OA
ATOM     24  N   ASP A   3      26.499   3.451   7.858  0.00  0.00    -0.297 N 
ATOM     25  H   ASP A   3      26.476   3.597   6.829  0.00  0.00    +0.150 HD
BRANCH  22  26
ATOM     26  CA  LEU A   2      27.864   5.442   7.965  0.00  0.00    +0.149 C 
BRANCH  26  28
ATOM     27  C   LEU A   1      25.907   6.810   8.189  0.00  0.00    +0.238 C 
ATOM     28  N   LEU A   2      27.170   6.561   8.563  0.00  0.00    -0.297 N 
ATOM     29  H   LEU A   2      27.642   7.161   9.270  0.00  0.00    +0.150 HD
ATOM     30  O   LEU A   1      25.356   6.217   7.271  0.00  0.00    -0.274 OA
BRANCH  27  31
ATOM     31  CA  LEU A   1      25.142   7.886   8.966  0.00  0.00    +0.145 C 
BRANCH  31  32
ATOM     32  N   LEU A   1      24.489   8.820   8.060  0.00  0.00    -0.238 NA
ATOM     33  H   LEU A   1      23.506   8.639   7.772  0.00  0.00    +0.142 HD
ENDBRANCH  31  32
BRANCH  31  34
ATOM     34  CB  LEU A   1      24.070   7.201   9.815  0.00  0.00    +0.026 C 
BRANCH  34  35
ATOM     35  CG  LEU A   1      24.053   7.170  11.349  0.00  0.00    +0.002 C 
ATOM     36  CD2 LEU A   1      24.238   8.545  11.931  0.00  0.00    +0.000 C 
ATOM     37  CD1 LEU A   1      22.715   6.576  11.791  0.00  0.00    +0.000 C 
ENDBRANCH  34  35
ENDBRANCH  31  34
ENDBRANCH  27  31
ENDBRANCH  26  28
BRANCH  26  38
ATOM     38  CB  LEU A   2      29.378   5.507   8.180  0.00  0.00    +0.029 C 
BRANCH  38  39
ATOM     39  CG  LEU A   2      30.105   6.640   7.452  0.00  0.00    +0.002 C 
ATOM     40  CD2 LEU A   2      31.552   6.737   7.915  0.00  0.00    +0.000 C 
ATOM     41  CD1 LEU A   2      30.047   6.420   5.951  0.00  0.00    +0.000 C 
ENDBRANCH  38  39
ENDBRANCH  26  38
ENDBRANCH  22  26
ENDBRANCH  21  24
BRANCH  21  42
ATOM     42  CB  ASP A   3      24.245   2.657   8.259  0.00  0.00    +0.143 C 
BRANCH  42  43
ATOM     43  CG  ASP A   3      23.357   1.686   8.979  0.00  0.00    +0.367 C 
ATOM     44  OD2 ASP A   3      23.891   0.720   9.549  0.00  0.00    -0.246 OA
ATOM     45  OD1 ASP A   3      22.131   1.891   8.974  0.00  0.00    -0.246 OA
ENDBRANCH  42  43
ENDBRANCH  21  42
ENDBRANCH  17  21
ENDBRANCH  16  18
BRANCH  16  46
ATOM     46  CB  THR A   4      28.459  -1.645   9.073  0.00  0.00    +0.137 C 
ATOM     47  CG2 THR A   4      29.665  -0.729   8.965  0.00  0.00    +0.034 C 
BRANCH  46  48
ATOM     48  OG1 THR A   4      28.053  -1.724  10.452  0.00  0.00    -0.382 OA
ATOM     49  HG1 THR A   4      27.272  -2.327  10.531  0.00  0.00    +0.210 HD
ENDBRANCH  46  48
ENDBRANCH  16  46
ENDBRANCH  12  16
ENDBRANCH  11  13
ENDBRANCH   7  11
ENDBRANCH   5   9
ENDBRANCH   1   5
BRANCH   3  50
ATOM     50  CA  ASP A   7      22.673  -2.920   2.454  0.00  0.00    +0.160 C 
BRANCH  50  51
ATOM     51  C   ASP A   7      22.602  -1.789   1.432  0.00  0.00    +0.241 C 
ATOM     52  N   ASP A   8      21.607  -0.916   1.595  0.00  0.00    -0.297 N 
ATOM     53  H   ASP A   8      20.957  -1.033   2.398  0.00  0.00    +0.150 HD
ATOM     54  O   ASP A   7      23.422  -1.721   0.507  0.00  0.00    -0.273 OA
BRANCH  52  55
ATOM     55  CA  ASP A   8      21.407   0.197   0.677  0.00  0.00    +0.160 C 
BRANCH  55  56
ATOM     56  C   ASP A   8      21.578   1.573   1.316  0.00  0.00    +0.241 C 
ATOM     57  O   ASP A   8      21.749   1.706   2.531  0.00  0.00    -0.273 OA
ATOM     58  N   THR A   9      21.531   2.595   0.469  0.00  0.00    -0.295 N 
ATOM     59  H   THR A   9      21.371   2.394  -0.539  0.00  0.00    +0.150 HD
BRANCH  58  60
ATOM     60  CA  THR A   9      21.693   3.985   0.882  0.00  0.00    +0.176 C 
BRANCH  60  61
ATOM     61  C   THR A   9      20.357   4.700   0.692  0.00  0.00    +0.243 C 
ATOM     62  N   ILE A  10      19.895   5.401   1.718  0.00  0.00    -0.297 N 
ATOM     63  H   ILE A  10      20.442   5.456   2.601  0.00  0.00    +0.150 HD
ATOM     64  O   THR A   9      19.750   4.612  -0.374  0.00  0.00    -0.273 OA
BRANCH  62  65
ATOM     65  CA  ILE A  10      18.620   6.094   1.604  0.00  0.00    +0.149 C 
BRANCH  65  66
ATOM     66  C   ILE A  10      18.620   7.486   2.212  0.00  0.00    +0.241 C 
ATOM     67  O   ILE A  10      19.232   7.713   3.245  0.00  0.00    -0.273 OA
ATOM     68  N   PHE A  11      17.939   8.415   1.547  0.00  0.00    -0.298 N 
ATOM     69  H   PHE A  11      17.481   8.158   0.649  0.00  0.00    +0.150 HD
BRANCH  68  70
ATOM     70  CA  PHE A  11      17.814   9.782   2.036  0.00  0.00    +0.141 C 
BRANCH  70  71
ATOM     71  C   PHE A  11      16.355  10.171   2.003  0.00  0.00    +0.227 C 
ATOM     72  O   PHE A  11      15.583   9.686   1.176  0.00  0.00    -0.286 OA
ENDBRANCH  70  71
BRANCH  70  73
ATOM     73  CB  PHE A  11      18.544  10.806   1.146  0.00  0.00    +0.054 C 
BRANCH  73  74
ATOM     74  CG  PHE A  11      20.038  10.759   1.256  0.00  0.00    -0.020 A 
ATOM     75  CD2 PHE A  11      20.715  11.712   2.007  0.00  0.00    -0.004 A 
ATOM     76  CE2 PHE A  11      22.100  11.690   2.104  0.00  0.00    -0.000 A 
ATOM     77  CZ  PHE A  11      22.829  10.699   1.440  0.00  0.00    -0.000 A 
ATOM     78  CE1 PHE A  11      22.166   9.737   0.688  0.00  0.00    -0.000 A 
ATOM     79  CD1 PHE A  11      20.769   9.772   0.600  0.00  0.00    -0.004 A 
ENDBRANCH  73  74
ENDBRANCH  70  73
ENDBRANCH  68  70
ENDBRANCH  65  66
BRANCH  65  80
ATOM     80  CB  ILE A  10      17.496   5.281   2.262  0.00  0.00    +0.027 C 
ATOM     81  CG2 ILE A  10      17.780   5.099   3.755  0.00  0.00    +0.002 C 
BRANCH  80  82
ATOM     82  CG1 ILE A  10      16.156   5.999   2.070  0.00  0.00    +0.002 C 
ATOM     83  CD1 ILE A  10      14.962   5.182   2.564  0.00  0.00    +0.000 C 
ENDBRANCH  80  82
ENDBRANCH  65  80
ENDBRANCH  62  65
ENDBRANCH  60  61
BRANCH  60  84
ATOM     84  CB  THR A   9      22.783   4.663   0.015  0.00  0.00    +0.137 C 
ATOM     85  CG2 THR A   9      22.835   6.170   0.257  0.00  0.00    +0.034 C 
BRANCH  84  86
ATOM     86  OG1 THR A   9      24.053   4.085   0.330  0.00  0.00    -0.382 OA
ATOM     87  HG1 THR A   9      24.029   3.114   0.139  0.00  0.00    +0.210 HD
ENDBRANCH  84  86
ENDBRANCH  60  84
ENDBRANCH  58  60
ENDBRANCH  55  56
BRANCH  55  88
ATOM     88  CB  ASP A   8      20.019   0.116   0.036  0.00  0.00    +0.143 C 
BRANCH  88  89
ATOM     89  CG  ASP A   8      19.702  -1.261  -0.479  0.00  0.00    +0.367 C 
ATOM     90  OD2 ASP A   8      18.621  -1.791  -0.126  0.00  0.00    -0.246 OA
ATOM     91  OD1 ASP A   8      20.531  -1.810  -1.228  0.00  0.00    -0.246 OA
ENDBRANCH  88  89
ENDBRANCH  55  88
ENDBRANCH  52  55
ENDBRANCH  50  51
BRANCH  50  92
ATOM     92  CB  ASP A   7      21.838  -4.091   1.915  0.00  0.00    +0.143 C 
BRANCH  92  93
ATOM     93  CG  ASP A   7      21.657  -5.213   2.924  0.00  0.00    +0.367 C 
ATOM     94  OD2 ASP A   7      22.642  -5.627   3.565  0.00  0.00    -0.246 OA
ATOM     95  OD1 ASP A   7      20.516  -5.693   3.062  0.00  0.00    -0.246 OA
ENDBRANCH  92  93
ENDBRANCH  50  92
ENDBRANCH   3  50
TORSDOF 40
REMARK  Name = ../refined-set-2016/1sgu/1sgu_pocket.pdb
REMARK  230 active torsions:
REMARK  status: ('A' for Active; 'I' for Inactive)
REMARK    1  A    between atoms: _1  and  _3
REMARK    2  A    between atoms: _3  and  _4
REMARK    3  A    between atoms: _3  and  _6
REMARK    4  A    between atoms: _6  and  _7
REMARK    5  A    between atoms: _7  and  _8
REMARK    6  A    between atoms: _8  and  _9
REMARK    7  A    between atoms: _18  and  _20
REMARK    8  A    between atoms: _20  and  _21
REMARK    9  A    between atoms: _20  and  _23
REMARK   10  A    between atoms: _23  and  _24
REMARK   11  A    between atoms: _27  and  _29
REMARK   12  A    between atoms: _29  and  _30
REMARK   13  A    between atoms: _29  and  _32
REMARK   14  A    between atoms: _32  and  _33
REMARK   15  A    between atoms: _36  and  _38
REMARK   16  A    between atoms: _38  and  _39
REMARK   17  A    between atoms: _38  and  _41
REMARK   18  A    between atoms: _41  and  _42
REMARK   19  A    between atoms: _45  and  _47
REMARK   20  A    between atoms: _47  and  _48
REMARK   21  A    between atoms: _47  and  _50
REMARK   22  A    between atoms: _50  and  _51
REMARK   23  A    between atoms: _54  and  _56
REMARK   24  A    between atoms: _56  and  _57
REMARK   25  A    between atoms: _59  and  _61
REMARK   26  A    between atoms: _61  and  _62
REMARK   27  A    between atoms: _65  and  _67
REMARK   28  A    between atoms: _67  and  _68
REMARK   29  A    between atoms: _67  and  _70
REMARK   30  A    between atoms: _70  and  _71
REMARK   31  A    between atoms: _74  and  _76
REMARK   32  A    between atoms: _76  and  _77
REMARK   33  A    between atoms: _76  and  _79
REMARK   34  A    between atoms: _79  and  _80
REMARK   35  A    between atoms: _83  and  _85
REMARK   36  A    between atoms: _85  and  _86
REMARK   37  A    between atoms: _85  and  _88
REMARK   38  A    between atoms: _88  and  _89
REMARK   39  A    between atoms: _92  and  _94
REMARK   40  A    between atoms: _94  and  _95
REMARK   41  A    between atoms: _94  and  _97
REMARK   42  A    between atoms: _97  and  _98
REMARK   43  A    between atoms: _101  and  _103
REMARK   44  A    between atoms: _103  and  _104
REMARK   45  A    between atoms: _103  and  _106
REMARK   46  A    between atoms: _106  and  _107
REMARK   47  A    between atoms: _113  and  _115
REMARK   48  A    between atoms: _115  and  _116
REMARK   49  A    between atoms: _115  and  _118
REMARK   50  A    between atoms: _118  and  _119
REMARK   51  A    between atoms: _119  and  _120
REMARK   52  A    between atoms: _120  and  _121
REMARK   53  A    between atoms: _121  and  _122
REMARK   54  A    between atoms: _126  and  _128
REMARK   55  A    between atoms: _128  and  _129
REMARK   56  A    between atoms: _128  and  _131
REMARK   57  A    between atoms: _131  and  _132
REMARK   58  A    between atoms: _132  and  _133
REMARK   59  A    between atoms: _135  and  _137
REMARK   60  A    between atoms: _137  and  _138
REMARK   61  A    between atoms: _137  and  _140
REMARK   62  A    between atoms: _140  and  _141
REMARK   63  A    between atoms: _144  and  _146
REMARK   64  A    between atoms: _146  and  _147
REMARK   65  A    between atoms: _149  and  _151
REMARK   66  A    between atoms: _151  and  _152
REMARK   67  A    between atoms: _154  and  _156
REMARK   68  A    between atoms: _156  and  _157
REMARK   69  A    between atoms: _156  and  _159
REMARK   70  A    between atoms: _159  and  _160
REMARK   71  A    between atoms: _163  and  _165
REMARK   72  A    between atoms: _165  and  _166
REMARK   73  A    between atoms: _168  and  _170
REMARK   74  A    between atoms: _170  and  _171
REMARK   75  A    between atoms: _173  and  _175
REMARK   76  A    between atoms: _175  and  _176
REMARK   77  A    between atoms: _175  and  _178
REMARK   78  A    between atoms: _178  and  _179
REMARK   79  A    between atoms: _185  and  _187
REMARK   80  A    between atoms: _187  and  _188
REMARK   81  A    between atoms: _187  and  _190
REMARK   82  A    between atoms: _193  and  _195
REMARK   83  A    between atoms: _195  and  _196
REMARK   84  A    between atoms: _195  and  _198
REMARK   85  A    between atoms: _201  and  _203
REMARK   86  A    between atoms: _203  and  _204
REMARK   87  A    between atoms: _203  and  _206
REMARK   88  A    between atoms: _206  and  _207
REMARK   89  A    between atoms: _211  and  _212
REMARK   90  A    between atoms: _217  and  _219
REMARK   91  A    between atoms: _219  and  _220
REMARK   92  A    between atoms: _219  and  _222
REMARK   93  A    between atoms: _222  and  _223
REMARK   94  A    between atoms: _227  and  _228
REMARK   95  A    between atoms: _233  and  _235
REMARK   96  A    between atoms: _235  and  _236
REMARK   97  A    between atoms: _239  and  _241
REMARK   98  A    between atoms: _241  and  _242
REMARK   99  A    between atoms: _241  and  _244
REMARK  100  A    between atoms: _244  and  _245
REMARK  101  A    between atoms: _250  and  _252
REMARK  102  A    between atoms: _252  and  _253
REMARK  103  A    between atoms: _252  and  _255
REMARK  104  A    between atoms: _258  and  _260
REMARK  105  A    between atoms: _260  and  _261
REMARK  106  A    between atoms: _260  and  _263
REMARK  107  A    between atoms: _263  and  _264
REMARK  108  A    between atoms: _267  and  _269
REMARK  109  A    between atoms: _269  and  _270
REMARK  110  A    between atoms: _272  and  _274
REMARK  111  A    between atoms: _274  and  _275
REMARK  112  A    between atoms: _274  and  _277
REMARK  113  A    between atoms: _277  and  _278
REMARK  114  A    between atoms: _278  and  _279
REMARK  115  A    between atoms: _279  and  _280
REMARK  116  A    between atoms: _289  and  _291
REMARK  117  A    between atoms: _291  and  _292
REMARK  118  A    between atoms: _291  and  _294
REMARK  119  A    between atoms: _294  and  _295
REMARK  120  A    between atoms: _300  and  _302
REMARK  121  A    between atoms: _302  and  _303
REMARK  122  A    between atoms: _302  and  _305
REMARK  123  A    between atoms: _305  and  _306
REMARK  124  A    between atoms: _306  and  _307
REMARK  125  A    between atoms: _307  and  _308
REMARK  126  A    between atoms: _317  and  _319
REMARK  127  A    between atoms: _319  and  _320
REMARK  128  A    between atoms: _319  and  _322
REMARK  129  A    between atoms: _322  and  _323
REMARK  130  A    between atoms: _326  and  _328
REMARK  131  A    between atoms: _328  and  _329
REMARK  132  A    between atoms: _328  and  _331
REMARK  133  A    between atoms: _331  and  _332
REMARK  134  A    between atoms: _335  and  _337
REMARK  135  A    between atoms: _337  and  _338
REMARK  136  A    between atoms: _337  and  _340
REMARK  137  A    between atoms: _340  and  _341
REMARK  138  A    between atoms: _344  and  _346
REMARK  139  A    between atoms: _346  and  _347
REMARK  140  A    between atoms: _346  and  _349
REMARK  141  A    between atoms: _349  and  _350
REMARK  142  A    between atoms: _353  and  _355
REMARK  143  A    between atoms: _355  and  _356
REMARK  144  A    between atoms: _358  and  _360
REMARK  145  A    between atoms: _360  and  _361
REMARK  146  A    between atoms: _364  and  _366
REMARK  147  A    between atoms: _366  and  _367
REMARK  148  A    between atoms: _366  and  _369
REMARK  149  A    between atoms: _369  and  _370
REMARK  150  A    between atoms: _373  and  _375
REMARK  151  A    between atoms: _375  and  _376
REMARK  152  A    between atoms: _375  and  _378
REMARK  153  A    between atoms: _378  and  _379
REMARK  154  A    between atoms: _382  and  _384
REMARK  155  A    between atoms: _384  and  _385
REMARK  156  A    between atoms: _384  and  _387
REMARK  157  A    between atoms: _387  and  _388
REMARK  158  A    between atoms: _391  and  _393
REMARK  159  A    between atoms: _393  and  _394
REMARK  160  A    between atoms: _393  and  _396
REMARK  161  A    between atoms: _396  and  _397
REMARK  162  A    between atoms: _400  and  _402
REMARK  163  A    between atoms: _402  and  _403
REMARK  164  A    between atoms: _402  and  _405
REMARK  165  A    between atoms: _405  and  _406
REMARK  166  A    between atoms: _412  and  _414
REMARK  167  A    between atoms: _414  and  _415
REMARK  168  A    between atoms: _414  and  _417
REMARK  169  A    between atoms: _417  and  _418
REMARK  170  A    between atoms: _418  and  _419
REMARK  171  A    between atoms: _419  and  _420
REMARK  172  A    between atoms: _420  and  _421
REMARK  173  A    between atoms: _425  and  _427
REMARK  174  A    between atoms: _427  and  _428
REMARK  175  A    between atoms: _427  and  _430
REMARK  176  A    between atoms: _430  and  _431
REMARK  177  A    between atoms: _431  and  _432
REMARK  178  A    between atoms: _434  and  _436
REMARK  179  A    between atoms: _436  and  _437
REMARK  180  A    between atoms: _436  and  _439
REMARK  181  A    between atoms: _439  and  _440
REMARK  182  A    between atoms: _443  and  _445
REMARK  183  A    between atoms: _445  and  _446
REMARK  184  A    between atoms: _448  and  _450
REMARK  185  A    between atoms: _450  and  _451
REMARK  186  A    between atoms: _453  and  _455
REMARK  187  A    between atoms: _455  and  _456
REMARK  188  A    between atoms: _455  and  _458
REMARK  189  A    between atoms: _458  and  _459
REMARK  190  A    between atoms: _462  and  _464
REMARK  191  A    between atoms: _464  and  _465
REMARK  192  A    between atoms: _467  and  _469
REMARK  193  A    between atoms: _469  and  _470
REMARK  194  A    between atoms: _472  and  _474
REMARK  195  A    between atoms: _474  and  _475
REMARK  196  A    between atoms: _474  and  _477
REMARK  197  A    between atoms: _480  and  _482
REMARK  198  A    between atoms: _482  and  _483
REMARK  199  A    between atoms: _482  and  _485
REMARK  200  A    between atoms: _485  and  _486
REMARK  201  A    between atoms: _489  and  _491
REMARK  202  A    between atoms: _491  and  _492
REMARK  203  A    between atoms: _491  and  _494
REMARK  204  A    between atoms: _494  and  _495
REMARK  205  A    between atoms: _499  and  _500
REMARK  206  A    between atoms: _505  and  _507
REMARK  207  A    between atoms: _507  and  _508
REMARK  208  A    between atoms: _511  and  _513
REMARK  209  A    between atoms: _513  and  _514
REMARK  210  A    between atoms: _513  and  _516
REMARK  211  A    between atoms: _516  and  _517
REMARK  212  A    between atoms: _522  and  _524
REMARK  213  A    between atoms: _524  and  _525
REMARK  214  A    between atoms: _524  and  _527
REMARK  215  A    between atoms: _530  and  _532
REMARK  216  A    between atoms: _532  and  _533
REMARK  217  A    between atoms: _532  and  _535
REMARK  218  A    between atoms: _535  and  _536
REMARK  219  A    between atoms: _539  and  _541
REMARK  220  A    between atoms: _541  and  _542
REMARK  221  A    between atoms: _544  and  _546
REMARK  222  A    between atoms: _546  and  _547
REMARK  223  A    between atoms: _546  and  _549
REMARK  224  A    between atoms: _549  and  _550
REMARK  225  A    between atoms: _550  and  _551
REMARK  226  A    between atoms: _551  and  _552
REMARK  227  A    between atoms: _561  and  _563
REMARK  228  A    between atoms: _563  and  _564
REMARK  229  A    between atoms: _563  and  _566
REMARK  230  A    between atoms: _566  and  _567
REMARK                            x       y       z     vdW  Elec       q    Type
REMARK                         _______ _______ _______ _____ _____    ______ ____
ROOT
ATOM      1  C   ILE A   3      12.084  -1.894   3.174  0.00  0.00    +0.241 C 
ATOM      2  O   ILE A   3      11.171  -1.332   3.781  0.00  0.00    -0.273 OA
ATOM      3  N   GLY A   4      12.778  -2.904   3.690  0.00  0.00    -0.295 N 
ATOM      4  H   GLY A   4      13.545  -3.341   3.139  0.00  0.00    +0.150 HD
ENDROOT
BRANCH   1   5
ATOM      5  CA  ILE A   3      12.469  -1.449   1.766  0.00  0.00    +0.149 C 
BRANCH   5   7
ATOM      6  C   MET A   2      11.028  -1.942  -0.116  0.00  0.00    +0.241 C 
ATOM      7  N   ILE A   3      11.279  -1.227   0.972  0.00  0.00    -0.297 N 
ATOM      8  H   ILE A   3      10.605  -0.490   1.262  0.00  0.00    +0.150 HD
ATOM      9  O   MET A   2      11.765  -2.839  -0.515  0.00  0.00    -0.273 OA
BRANCH   6  10
ATOM     10  CA  MET A   2       9.763  -1.595  -0.866  0.00  0.00    +0.149 C 
BRANCH  10  13
ATOM     11  C   LYS A   1      10.421  -0.223  -2.772  0.00  0.00    +0.238 C 
ATOM     12  O   LYS A   1      10.335   0.821  -2.124  0.00  0.00    -0.274 OA
ATOM     13  N   MET A   2      10.149  -1.422  -2.262  0.00  0.00    -0.297 N 
ATOM     14  H   MET A   2      10.213  -2.259  -2.876  0.00  0.00    +0.150 HD
BRANCH  11  15
ATOM     15  CA  LYS A   1      10.842  -0.200  -4.234  0.00  0.00    +0.145 C 
BRANCH  15  16
ATOM     16  N   LYS A   1      10.196   0.867  -4.985  0.00  0.00    -0.238 NA
ATOM     17  H   LYS A   1       9.790   1.681  -4.481  0.00  0.00    +0.142 HD
ENDBRANCH  15  16
BRANCH  15  18
ATOM     18  CB  LYS A   1      12.368  -0.066  -4.325  0.00  0.00    +0.026 C 
BRANCH  18  19
ATOM     19  CG  LYS A   1      13.120  -1.185  -3.629  0.00  0.00    -0.000 C 
BRANCH  19  20
ATOM     20  CD  LYS A   1      14.629  -1.055  -3.798  0.00  0.00    -0.024 C 
BRANCH  20  21
ATOM     21  CE  LYS A   1      15.355  -2.198  -3.091  0.00  0.00    -0.086 C 
BRANCH  21  22
ATOM     22  NZ  LYS A   1      16.820  -2.193  -3.343  0.00  0.00    +0.380 N 
ATOM     23  HZ1 LYS A   1      17.260  -2.989  -2.839  0.00  0.00    -0.089 HD
ATOM     24  HZ2 LYS A   1      17.226  -1.298  -3.002  0.00  0.00    -0.089 HD
ATOM     25  HZ3 LYS A   1      16.995  -2.288  -4.364  0.00  0.00    -0.089 HD
ENDBRANCH  21  22
ENDBRANCH  20  21
ENDBRANCH  19  20
ENDBRANCH  18  19
ENDBRANCH  15  18
ENDBRANCH  11  15
ENDBRANCH  10  13
BRANCH  10  26
ATOM     26  CB  MET A   2       8.750  -2.731  -0.700  0.00  0.00    +0.041 C 
BRANCH  26  27
ATOM     27  CG  MET A   2       7.396  -2.459  -1.329  0.00  0.00    +0.060 C 
BRANCH  27  28
ATOM     28  SD  MET A   2       6.830  -0.802  -0.949  0.00  0.00    -0.139 S 
ATOM     29  CE  MET A   2       7.017  -0.779   0.832  0.00  0.00    +0.069 C 
ENDBRANCH  27  28
ENDBRANCH  26  27
ENDBRANCH  10  26
ENDBRANCH   6  10
ENDBRANCH   5   7
BRANCH   5  30
ATOM     30  CB  ILE A   3      13.293  -0.150   1.818  0.00  0.00    +0.027 C 
ATOM     31  CG2 ILE A   3      12.683   0.826   2.812  0.00  0.00    +0.002 C 
BRANCH  30  32
ATOM     32  CG1 ILE A   3      14.728  -0.444   2.200  0.00  0.00    +0.002 C 
ATOM     33  CD1 ILE A   3      15.559   0.783   2.115  0.00  0.00    +0.000 C 
ENDBRANCH  30  32
ENDBRANCH   5  30
ENDBRANCH   1   5
BRANCH   3  34
ATOM     34  CA  GLY A   4      12.469  -3.400   5.021  0.00  0.00    +0.176 C 
BRANCH  34  35
ATOM     35  C   GLY A   4      13.465  -3.004   6.094  0.00  0.00    +0.243 C 
ATOM     36  N   GLY A   5      12.956  -2.447   7.185  0.00  0.00    -0.295 N 
ATOM     37  H   GLY A   5      11.929  -2.297   7.258  0.00  0.00    +0.150 HD
ATOM     38  O   GLY A   4      14.670  -3.198   5.947  0.00  0.00    -0.273 OA
BRANCH  36  39
ATOM     39  CA  GLY A   5      13.823  -2.046   8.276  0.00  0.00    +0.176 C 
BRANCH  39  40
ATOM     40  C   GLY A   5      13.378  -2.685   9.572  0.00  0.00    +0.243 C 
ATOM     41  N   ILE A   6      13.916  -2.198  10.680  0.00  0.00    -0.297 N 
ATOM     42  H   ILE A   6      14.599  -1.417  10.608  0.00  0.00    +0.150 HD
ATOM     43  O   GLY A   5      12.545  -3.586   9.576  0.00  0.00    -0.273 OA
BRANCH  41  44
ATOM     44  CA  ILE A   6      13.581  -2.721  11.993  0.00  0.00    +0.149 C 
BRANCH  44  45
ATOM     45  C   ILE A   6      12.099  -2.562  12.359  0.00  0.00    +0.241 C 
ATOM     46  O   ILE A   6      11.536  -3.409  13.048  0.00  0.00    -0.273 OA
ATOM     47  N   GLY A   7      11.463  -1.489  11.908  0.00  0.00    -0.295 N 
ATOM     48  H   GLY A   7      11.956  -0.795  11.311  0.00  0.00    +0.150 HD
BRANCH  47  49
ATOM     49  CA  GLY A   7      10.063  -1.297  12.262  0.00  0.00    +0.176 C 
BRANCH  49  50
ATOM     50  C   GLY A   7       9.025  -1.625  11.201  0.00  0.00    +0.243 C 
ATOM     51  O   GLY A   7       7.831  -1.429  11.415  0.00  0.00    -0.273 OA
ATOM     52  N   GLY A   8       9.467  -2.123  10.054  0.00  0.00    -0.296 N 
ATOM     53  H   GLY A   8      10.485  -2.280   9.911  0.00  0.00    +0.150 HD
BRANCH  52  54
ATOM     54  CA  GLY A   8       8.527  -2.446   9.004  0.00  0.00    +0.163 C 
BRANCH  54  55
ATOM     55  C   GLY A   8       9.061  -2.005   7.660  0.00  0.00    +0.229 C 
ATOM     56  O   GLY A   8      10.254  -1.719   7.534  0.00  0.00    -0.286 OA
ENDBRANCH  54  55
ENDBRANCH  52  54
ENDBRANCH  49  50
ENDBRANCH  47  49
ENDBRANCH  44  45
BRANCH  44  57
ATOM     57  CB  ILE A   6      14.447  -2.039  13.083  0.00  0.00    +0.027 C 
ATOM     58  CG2 ILE A   6      13.596  -1.130  13.955  0.00  0.00    +0.002 C 
BRANCH  57  59
ATOM     59  CG1 ILE A   6      15.128  -3.104  13.945  0.00  0.00    +0.002 C 
ATOM     60  CD1 ILE A   6      16.234  -3.830  13.234  0.00  0.00    +0.000 C 
ENDBRANCH  57  59
ENDBRANCH  44  57
ENDBRANCH  41  44
ENDBRANCH  39  40
ENDBRANCH  36  39
ENDBRANCH  34  35
ENDBRANCH   3  34
TORSDOF 28
REMARK  Name = ../refined-set-2016/1sgu/1sgu_pocket.pdb
REMARK  230 active torsions:
REMARK  status: ('A' for Active; 'I' for Inactive)
REMARK    1  A    between atoms: _1  and  _3
REMARK    2  A    between atoms: _3  and  _4
REMARK    3  A    between atoms: _3  and  _6
REMARK    4  A    between atoms: _6  and  _7
REMARK    5  A    between atoms: _7  and  _8
REMARK    6  A    between atoms: _8  and  _9
REMARK    7  A    between atoms: _18  and  _20
REMARK    8  A    between atoms: _20  and  _21
REMARK    9  A    between atoms: _20  and  _23
REMARK   10  A    between atoms: _23  and  _24
REMARK   11  A    between atoms: _27  and  _29
REMARK   12  A    between atoms: _29  and  _30
REMARK   13  A    between atoms: _29  and  _32
REMARK   14  A    between atoms: _32  and  _33
REMARK   15  A    between atoms: _36  and  _38
REMARK   16  A    between atoms: _38  and  _39
REMARK   17  A    between atoms: _38  and  _41
REMARK   18  A    between atoms: _41  and  _42
REMARK   19  A    between atoms: _45  and  _47
REMARK   20  A    between atoms: _47  and  _48
REMARK   21  A    between atoms: _47  and  _50
REMARK   22  A    between atoms: _50  and  _51
REMARK   23  A    between atoms: _54  and  _56
REMARK   24  A    between atoms: _56  and  _57
REMARK   25  A    between atoms: _59  and  _61
REMARK   26  A    between atoms: _61  and  _62
REMARK   27  A    between atoms: _65  and  _67
REMARK   28  A    between atoms: _67  and  _68
REMARK   29  A    between atoms: _67  and  _70
REMARK   30  A    between atoms: _70  and  _71
REMARK   31  A    between atoms: _74  and  _76
REMARK   32  A    between atoms: _76  and  _77
REMARK   33  A    between atoms: _76  and  _79
REMARK   34  A    between atoms: _79  and  _80
REMARK   35  A    between atoms: _83  and  _85
REMARK   36  A    between atoms: _85  and  _86
REMARK   37  A    between atoms: _85  and  _88
REMARK   38  A    between atoms: _88  and  _89
REMARK   39  A    between atoms: _92  and  _94
REMARK   40  A    between atoms: _94  and  _95
REMARK   41  A    between atoms: _94  and  _97
REMARK   42  A    between atoms: _97  and  _98
REMARK   43  A    between atoms: _101  and  _103
REMARK   44  A    between atoms: _103  and  _104
REMARK   45  A    between atoms: _103  and  _106
REMARK   46  A    between atoms: _106  and  _107
REMARK   47  A    between atoms: _113  and  _115
REMARK   48  A    between atoms: _115  and  _116
REMARK   49  A    between atoms: _115  and  _118
REMARK   50  A    between atoms: _118  and  _119
REMARK   51  A    between atoms: _119  and  _120
REMARK   52  A    between atoms: _120  and  _121
REMARK   53  A    between atoms: _121  and  _122
REMARK   54  A    between atoms: _126  and  _128
REMARK   55  A    between atoms: _128  and  _129
REMARK   56  A    between atoms: _128  and  _131
REMARK   57  A    between atoms: _131  and  _132
REMARK   58  A    between atoms: _132  and  _133
REMARK   59  A    between atoms: _135  and  _137
REMARK   60  A    between atoms: _137  and  _138
REMARK   61  A    between atoms: _137  and  _140
REMARK   62  A    between atoms: _140  and  _141
REMARK   63  A    between atoms: _144  and  _146
REMARK   64  A    between atoms: _146  and  _147
REMARK   65  A    between atoms: _149  and  _151
REMARK   66  A    between atoms: _151  and  _152
REMARK   67  A    between atoms: _154  and  _156
REMARK   68  A    between atoms: _156  and  _157
REMARK   69  A    between atoms: _156  and  _159
REMARK   70  A    between atoms: _159  and  _160
REMARK   71  A    between atoms: _163  and  _165
REMARK   72  A    between atoms: _165  and  _166
REMARK   73  A    between atoms: _168  and  _170
REMARK   74  A    between atoms: _170  and  _171
REMARK   75  A    between atoms: _173  and  _175
REMARK   76  A    between atoms: _175  and  _176
REMARK   77  A    between atoms: _175  and  _178
REMARK   78  A    between atoms: _178  and  _179
REMARK   79  A    between atoms: _185  and  _187
REMARK   80  A    between atoms: _187  and  _188
REMARK   81  A    between atoms: _187  and  _190
REMARK   82  A    between atoms: _193  and  _195
REMARK   83  A    between atoms: _195  and  _196
REMARK   84  A    between atoms: _195  and  _198
REMARK   85  A    between atoms: _201  and  _203
REMARK   86  A    between atoms: _203  and  _204
REMARK   87  A    between atoms: _203  and  _206
REMARK   88  A    between atoms: _206  and  _207
REMARK   89  A    between atoms: _211  and  _212
REMARK   90  A    between atoms: _217  and  _219
REMARK   91  A    between atoms: _219  and  _220
REMARK   92  A    between atoms: _219  and  _222
REMARK   93  A    between atoms: _222  and  _223
REMARK   94  A    between atoms: _227  and  _228
REMARK   95  A    between atoms: _233  and  _235
REMARK   96  A    between atoms: _235  and  _236
REMARK   97  A    between atoms: _239  and  _241
REMARK   98  A    between atoms: _241  and  _242
REMARK   99  A    between atoms: _241  and  _244
REMARK  100  A    between atoms: _244  and  _245
REMARK  101  A    between atoms: _250  and  _252
REMARK  102  A    between atoms: _252  and  _253
REMARK  103  A    between atoms: _252  and  _255
REMARK  104  A    between atoms: _258  and  _260
REMARK  105  A    between atoms: _260  and  _261
REMARK  106  A    between atoms: _260  and  _263
REMARK  107  A    between atoms: _263  and  _264
REMARK  108  A    between atoms: _267  and  _269
REMARK  109  A    between atoms: _269  and  _270
REMARK  110  A    between atoms: _272  and  _274
REMARK  111  A    between atoms: _274  and  _275
REMARK  112  A    between atoms: _274  and  _277
REMARK  113  A    between atoms: _277  and  _278
REMARK  114  A    between atoms: _278  and  _279
REMARK  115  A    between atoms: _279  and  _280
REMARK  116  A    between atoms: _289  and  _291
REMARK  117  A    between atoms: _291  and  _292
REMARK  118  A    between atoms: _291  and  _294
REMARK  119  A    between atoms: _294  and  _295
REMARK  120  A    between atoms: _300  and  _302
REMARK  121  A    between atoms: _302  and  _303
REMARK  122  A    between atoms: _302  and  _305
REMARK  123  A    between atoms: _305  and  _306
REMARK  124  A    between atoms: _306  and  _307
REMARK  125  A    between atoms: _307  and  _308
REMARK  126  A    between atoms: _317  and  _319
REMARK  127  A    between atoms: _319  and  _320
REMARK  128  A    between atoms: _319  and  _322
REMARK  129  A    between atoms: _322  and  _323
REMARK  130  A    between atoms: _326  and  _328
REMARK  131  A    between atoms: _328  and  _329
REMARK  132  A    between atoms: _328  and  _331
REMARK  133  A    between atoms: _331  and  _332
REMARK  134  A    between atoms: _335  and  _337
REMARK  135  A    between atoms: _337  and  _338
REMARK  136  A    between atoms: _337  and  _340
REMARK  137  A    between atoms: _340  and  _341
REMARK  138  A    between atoms: _344  and  _346
REMARK  139  A    between atoms: _346  and  _347
REMARK  140  A    between atoms: _346  and  _349
REMARK  141  A    between atoms: _349  and  _350
REMARK  142  A    between atoms: _353  and  _355
REMARK  143  A    between atoms: _355  and  _356
REMARK  144  A    between atoms: _358  and  _360
REMARK  145  A    between atoms: _360  and  _361
REMARK  146  A    between atoms: _364  and  _366
REMARK  147  A    between atoms: _366  and  _367
REMARK  148  A    between atoms: _366  and  _369
REMARK  149  A    between atoms: _369  and  _370
REMARK  150  A    between atoms: _373  and  _375
REMARK  151  A    between atoms: _375  and  _376
REMARK  152  A    between atoms: _375  and  _378
REMARK  153  A    between atoms: _378  and  _379
REMARK  154  A    between atoms: _382  and  _384
REMARK  155  A    between atoms: _384  and  _385
REMARK  156  A    between atoms: _384  and  _387
REMARK  157  A    between atoms: _387  and  _388
REMARK  158  A    between atoms: _391  and  _393
REMARK  159  A    between atoms: _393  and  _394
REMARK  160  A    between atoms: _393  and  _396
REMARK  161  A    between atoms: _396  and  _397
REMARK  162  A    between atoms: _400  and  _402
REMARK  163  A    between atoms: _402  and  _403
REMARK  164  A    between atoms: _402  and  _405
REMARK  165  A    between atoms: _405  and  _406
REMARK  166  A    between atoms: _412  and  _414
REMARK  167  A    between atoms: _414  and  _415
REMARK  168  A    between atoms: _414  and  _417
REMARK  169  A    between atoms: _417  and  _418
REMARK  170  A    between atoms: _418  and  _419
REMARK  171  A    between atoms: _419  and  _420
REMARK  172  A    between atoms: _420  and  _421
REMARK  173  A    between atoms: _425  and  _427
REMARK  174  A    between atoms: _427  and  _428
REMARK  175  A    between atoms: _427  and  _430
REMARK  176  A    between atoms: _430  and  _431
REMARK  177  A    between atoms: _431  and  _432
REMARK  178  A    between atoms: _434  and  _436
REMARK  179  A    between atoms: _436  and  _437
REMARK  180  A    between atoms: _436  and  _439
REMARK  181  A    between atoms: _439  and  _440
REMARK  182  A    between atoms: _443  and  _445
REMARK  183  A    between atoms: _445  and  _446
REMARK  184  A    between atoms: _448  and  _450
REMARK  185  A    between atoms: _450  and  _451
REMARK  186  A    between atoms: _453  and  _455
REMARK  187  A    between atoms: _455  and  _456
REMARK  188  A    between atoms: _455  and  _458
REMARK  189  A    between atoms: _458  and  _459
REMARK  190  A    between atoms: _462  and  _464
REMARK  191  A    between atoms: _464  and  _465
REMARK  192  A    between atoms: _467  and  _469
REMARK  193  A    between atoms: _469  and  _470
REMARK  194  A    between atoms: _472  and  _474
REMARK  195  A    between atoms: _474  and  _475
REMARK  196  A    between atoms: _474  and  _477
REMARK  197  A    between atoms: _480  and  _482
REMARK  198  A    between atoms: _482  and  _483
REMARK  199  A    between atoms: _482  and  _485
REMARK  200  A    between atoms: _485  and  _486
REMARK  201  A    between atoms: _489  and  _491
REMARK  202  A    between atoms: _491  and  _492
REMARK  203  A    between atoms: _491  and  _494
REMARK  204  A    between atoms: _494  and  _495
REMARK  205  A    between atoms: _499  and  _500
REMARK  206  A    between atoms: _505  and  _507
REMARK  207  A    between atoms: _507  and  _508
REMARK  208  A    between atoms: _511  and  _513
REMARK  209  A    between atoms: _513  and  _514
REMARK  210  A    between atoms: _513  and  _516
REMARK  211  A    between atoms: _516  and  _517
REMARK  212  A    between atoms: _522  and  _524
REMARK  213  A    between atoms: _524  and  _525
REMARK  214  A    between atoms: _524  and  _527
REMARK  215  A    between atoms: _530  and  _532
REMARK  216  A    between atoms: _532  and  _533
REMARK  217  A    between atoms: _532  and  _535
REMARK  218  A    between atoms: _535  and  _536
REMARK  219  A    between atoms: _539  and  _541
REMARK  220  A    between atoms: _541  and  _542
REMARK  221  A    between atoms: _544  and  _546
REMARK  222  A    between atoms: _546  and  _547
REMARK  223  A    between atoms: _546  and  _549
REMARK  224  A    between atoms: _549  and  _550
REMARK  225  A    between atoms: _550  and  _551
REMARK  226  A    between atoms: _551  and  _552
REMARK  227  A    between atoms: _561  and  _563
REMARK  228  A    between atoms: _563  and  _564
REMARK  229  A    between atoms: _563  and  _566
REMARK  230  A    between atoms: _566  and  _567
REMARK                            x       y       z     vdW  Elec       q    Type
REMARK                         _______ _______ _______ _____ _____    ______ ____
ROOT
ATOM      1  CA  VAL A   1      10.784   4.461  -1.841  0.00  0.00    +0.133 C 
ENDROOT
BRANCH   1   2
ATOM      2  CB  VAL A   1      12.160   4.214  -1.164  0.00  0.00    +0.023 C 
ATOM      3  CG2 VAL A   1      12.022   4.206   0.363  0.00  0.00    +0.002 C 
ATOM      4  CG1 VAL A   1      12.744   2.901  -1.651  0.00  0.00    +0.002 C 
ENDBRANCH   1   2
BRANCH   1   5
ATOM      5  N   VAL A   1       9.812   3.453  -1.437  0.00  0.00    -0.239 NA
ATOM      6  H   VAL A   1       9.814   2.526  -1.908  0.00  0.00    +0.142 HD
ENDBRANCH   1   5
BRANCH   1   7
ATOM      7  C   VAL A   1      11.021   4.482  -3.350  0.00  0.00    +0.224 C 
ATOM      8  O   VAL A   1      10.585   3.585  -4.077  0.00  0.00    -0.287 OA
ENDBRANCH   1   7
TORSDOF 3
REMARK  Name = ../refined-set-2016/1sgu/1sgu_pocket.pdb
REMARK  230 active torsions:
REMARK  status: ('A' for Active; 'I' for Inactive)
REMARK    1  A    between atoms: _1  and  _3
REMARK    2  A    between atoms: _3  and  _4
REMARK    3  A    between atoms: _3  and  _6
REMARK    4  A    between atoms: _6  and  _7
REMARK    5  A    between atoms: _7  and  _8
REMARK    6  A    between atoms: _8  and  _9
REMARK    7  A    between atoms: _18  and  _20
REMARK    8  A    between atoms: _20  and  _21
REMARK    9  A    between atoms: _20  and  _23
REMARK   10  A    between atoms: _23  and  _24
REMARK   11  A    between atoms: _27  and  _29
REMARK   12  A    between atoms: _29  and  _30
REMARK   13  A    between atoms: _29  and  _32
REMARK   14  A    between atoms: _32  and  _33
REMARK   15  A    between atoms: _36  and  _38
REMARK   16  A    between atoms: _38  and  _39
REMARK   17  A    between atoms: _38  and  _41
REMARK   18  A    between atoms: _41  and  _42
REMARK   19  A    between atoms: _45  and  _47
REMARK   20  A    between atoms: _47  and  _48
REMARK   21  A    between atoms: _47  and  _50
REMARK   22  A    between atoms: _50  and  _51
REMARK   23  A    between atoms: _54  and  _56
REMARK   24  A    between atoms: _56  and  _57
REMARK   25  A    between atoms: _59  and  _61
REMARK   26  A    between atoms: _61  and  _62
REMARK   27  A    between atoms: _65  and  _67
REMARK   28  A    between atoms: _67  and  _68
REMARK   29  A    between atoms: _67  and  _70
REMARK   30  A    between atoms: _70  and  _71
REMARK   31  A    between atoms: _74  and  _76
REMARK   32  A    between atoms: _76  and  _77
REMARK   33  A    between atoms: _76  and  _79
REMARK   34  A    between atoms: _79  and  _80
REMARK   35  A    between atoms: _83  and  _85
REMARK   36  A    between atoms: _85  and  _86
REMARK   37  A    between atoms: _85  and  _88
REMARK   38  A    between atoms: _88  and  _89
REMARK   39  A    between atoms: _92  and  _94
REMARK   40  A    between atoms: _94  and  _95
REMARK   41  A    between atoms: _94  and  _97
REMARK   42  A    between atoms: _97  and  _98
REMARK   43  A    between atoms: _101  and  _103
REMARK   44  A    between atoms: _103  and  _104
REMARK   45  A    between atoms: _103  and  _106
REMARK   46  A    between atoms: _106  and  _107
REMARK   47  A    between atoms: _113  and  _115
REMARK   48  A    between atoms: _115  and  _116
REMARK   49  A    between atoms: _115  and  _118
REMARK   50  A    between atoms: _118  and  _119
REMARK   51  A    between atoms: _119  and  _120
REMARK   52  A    between atoms: _120  and  _121
REMARK   53  A    between atoms: _121  and  _122
REMARK   54  A    between atoms: _126  and  _128
REMARK   55  A    between atoms: _128  and  _129
REMARK   56  A    between atoms: _128  and  _131
REMARK   57  A    between atoms: _131  and  _132
REMARK   58  A    between atoms: _132  and  _133
REMARK   59  A    between atoms: _135  and  _137
REMARK   60  A    between atoms: _137  and  _138
REMARK   61  A    between atoms: _137  and  _140
REMARK   62  A    between atoms: _140  and  _141
REMARK   63  A    between atoms: _144  and  _146
REMARK   64  A    between atoms: _146  and  _147
REMARK   65  A    between atoms: _149  and  _151
REMARK   66  A    between atoms: _151  and  _152
REMARK   67  A    between atoms: _154  and  _156
REMARK   68  A    between atoms: _156  and  _157
REMARK   69  A    between atoms: _156  and  _159
REMARK   70  A    between atoms: _159  and  _160
REMARK   71  A    between atoms: _163  and  _165
REMARK   72  A    between atoms: _165  and  _166
REMARK   73  A    between atoms: _168  and  _170
REMARK   74  A    between atoms: _170  and  _171
REMARK   75  A    between atoms: _173  and  _175
REMARK   76  A    between atoms: _175  and  _176
REMARK   77  A    between atoms: _175  and  _178
REMARK   78  A    between atoms: _178  and  _179
REMARK   79  A    between atoms: _185  and  _187
REMARK   80  A    between atoms: _187  and  _188
REMARK   81  A    between atoms: _187  and  _190
REMARK   82  A    between atoms: _193  and  _195
REMARK   83  A    between atoms: _195  and  _196
REMARK   84  A    between atoms: _195  and  _198
REMARK   85  A    between atoms: _201  and  _203
REMARK   86  A    between atoms: _203  and  _204
REMARK   87  A    between atoms: _203  and  _206
REMARK   88  A    between atoms: _206  and  _207
REMARK   89  A    between atoms: _211  and  _212
REMARK   90  A    between atoms: _217  and  _219
REMARK   91  A    between atoms: _219  and  _220
REMARK   92  A    between atoms: _219  and  _222
REMARK   93  A    between atoms: _222  and  _223
REMARK   94  A    between atoms: _227  and  _228
REMARK   95  A    between atoms: _233  and  _235
REMARK   96  A    between atoms: _235  and  _236
REMARK   97  A    between atoms: _239  and  _241
REMARK   98  A    between atoms: _241  and  _242
REMARK   99  A    between atoms: _241  and  _244
REMARK  100  A    between atoms: _244  and  _245
REMARK  101  A    between atoms: _250  and  _252
REMARK  102  A    between atoms: _252  and  _253
REMARK  103  A    between atoms: _252  and  _255
REMARK  104  A    between atoms: _258  and  _260
REMARK  105  A    between atoms: _260  and  _261
REMARK  106  A    between atoms: _260  and  _263
REMARK  107  A    between atoms: _263  and  _264
REMARK  108  A    between atoms: _267  and  _269
REMARK  109  A    between atoms: _269  and  _270
REMARK  110  A    between atoms: _272  and  _274
REMARK  111  A    between atoms: _274  and  _275
REMARK  112  A    between atoms: _274  and  _277
REMARK  113  A    between atoms: _277  and  _278
REMARK  114  A    between atoms: _278  and  _279
REMARK  115  A    between atoms: _279  and  _280
REMARK  116  A    between atoms: _289  and  _291
REMARK  117  A    between atoms: _291  and  _292
REMARK  118  A    between atoms: _291  and  _294
REMARK  119  A    between atoms: _294  and  _295
REMARK  120  A    between atoms: _300  and  _302
REMARK  121  A    between atoms: _302  and  _303
REMARK  122  A    between atoms: _302  and  _305
REMARK  123  A    between atoms: _305  and  _306
REMARK  124  A    between atoms: _306  and  _307
REMARK  125  A    between atoms: _307  and  _308
REMARK  126  A    between atoms: _317  and  _319
REMARK  127  A    between atoms: _319  and  _320
REMARK  128  A    between atoms: _319  and  _322
REMARK  129  A    between atoms: _322  and  _323
REMARK  130  A    between atoms: _326  and  _328
REMARK  131  A    between atoms: _328  and  _329
REMARK  132  A    between atoms: _328  and  _331
REMARK  133  A    between atoms: _331  and  _332
REMARK  134  A    between atoms: _335  and  _337
REMARK  135  A    between atoms: _337  and  _338
REMARK  136  A    between atoms: _337  and  _340
REMARK  137  A    between atoms: _340  and  _341
REMARK  138  A    between atoms: _344  and  _346
REMARK  139  A    between atoms: _346  and  _347
REMARK  140  A    between atoms: _346  and  _349
REMARK  141  A    between atoms: _349  and  _350
REMARK  142  A    between atoms: _353  and  _355
REMARK  143  A    between atoms: _355  and  _356
REMARK  144  A    between atoms: _358  and  _360
REMARK  145  A    between atoms: _360  and  _361
REMARK  146  A    between atoms: _364  and  _366
REMARK  147  A    between atoms: _366  and  _367
REMARK  148  A    between atoms: _366  and  _369
REMARK  149  A    between atoms: _369  and  _370
REMARK  150  A    between atoms: _373  and  _375
REMARK  151  A    between atoms: _375  and  _376
REMARK  152  A    between atoms: _375  and  _378
REMARK  153  A    between atoms: _378  and  _379
REMARK  154  A    between atoms: _382  and  _384
REMARK  155  A    between atoms: _384  and  _385
REMARK  156  A    between atoms: _384  and  _387
REMARK  157  A    between atoms: _387  and  _388
REMARK  158  A    between atoms: _391  and  _393
REMARK  159  A    between atoms: _393  and  _394
REMARK  160  A    between atoms: _393  and  _396
REMARK  161  A    between atoms: _396  and  _397
REMARK  162  A    between atoms: _400  and  _402
REMARK  163  A    between atoms: _402  and  _403
REMARK  164  A    between atoms: _402  and  _405
REMARK  165  A    between atoms: _405  and  _406
REMARK  166  A    between atoms: _412  and  _414
REMARK  167  A    between atoms: _414  and  _415
REMARK  168  A    between atoms: _414  and  _417
REMARK  169  A    between atoms: _417  and  _418
REMARK  170  A    between atoms: _418  and  _419
REMARK  171  A    between atoms: _419  and  _420
REMARK  172  A    between atoms: _420  and  _421
REMARK  173  A    between atoms: _425  and  _427
REMARK  174  A    between atoms: _427  and  _428
REMARK  175  A    between atoms: _427  and  _430
REMARK  176  A    between atoms: _430  and  _431
REMARK  177  A    between atoms: _431  and  _432
REMARK  178  A    between atoms: _434  and  _436
REMARK  179  A    between atoms: _436  and  _437
REMARK  180  A    between atoms: _436  and  _439
REMARK  181  A    between atoms: _439  and  _440
REMARK  182  A    between atoms: _443  and  _445
REMARK  183  A    between atoms: _445  and  _446
REMARK  184  A    between atoms: _448  and  _450
REMARK  185  A    between atoms: _450  and  _451
REMARK  186  A    between atoms: _453  and  _455
REMARK  187  A    between atoms: _455  and  _456
REMARK  188  A    between atoms: _455  and  _458
REMARK  189  A    between atoms: _458  and  _459
REMARK  190  A    between atoms: _462  and  _464
REMARK  191  A    between atoms: _464  and  _465
REMARK  192  A    between atoms: _467  and  _469
REMARK  193  A    between atoms: _469  and  _470
REMARK  194  A    between atoms: _472  and  _474
REMARK  195  A    between atoms: _474  and  _475
REMARK  196  A    between atoms: _474  and  _477
REMARK  197  A    between atoms: _480  and  _482
REMARK  198  A    between atoms: _482  and  _483
REMARK  199  A    between atoms: _482  and  _485
REMARK  200  A    between atoms: _485  and  _486
REMARK  201  A    between atoms: _489  and  _491
REMARK  202  A    between atoms: _491  and  _492
REMARK  203  A    between atoms: _491  and  _494
REMARK  204  A    between atoms: _494  and  _495
REMARK  205  A    between atoms: _499  and  _500
REMARK  206  A    between atoms: _505  and  _507
REMARK  207  A    between atoms: _507  and  _508
REMARK  208  A    between atoms: _511  and  _513
REMARK  209  A    between atoms: _513  and  _514
REMARK  210  A    between atoms: _513  and  _516
REMARK  211  A    between atoms: _516  and  _517
REMARK  212  A    between atoms: _522  and  _524
REMARK  213  A    between atoms: _524  and  _525
REMARK  214  A    between atoms: _524  and  _527
REMARK  215  A    between atoms: _530  and  _532
REMARK  216  A    between atoms: _532  and  _533
REMARK  217  A    between atoms: _532  and  _535
REMARK  218  A    between atoms: _535  and  _536
REMARK  219  A    between atoms: _539  and  _541
REMARK  220  A    between atoms: _541  and  _542
REMARK  221  A    between atoms: _544  and  _546
REMARK  222  A    between atoms: _546  and  _547
REMARK  223  A    between atoms: _546  and  _549
REMARK  224  A    between atoms: _549  and  _550
REMARK  225  A    between atoms: _550  and  _551
REMARK  226  A    between atoms: _551  and  _552
REMARK  227  A    between atoms: _561  and  _563
REMARK  228  A    between atoms: _563  and  _564
REMARK  229  A    between atoms: _563  and  _566
REMARK  230  A    between atoms: _566  and  _567
REMARK                            x       y       z     vdW  Elec       q    Type
REMARK                         _______ _______ _______ _____ _____    ______ ____
ROOT
ATOM      1  CA  LEU A   1      16.936   5.410  -2.491  0.00  0.00    +0.133 C 
ENDROOT
BRANCH   1   2
ATOM      2  N   LEU A   1      18.382   5.475  -2.690  0.00  0.00    -0.239 NA
ATOM      3  H   LEU A   1      19.017   5.290  -1.888  0.00  0.00    +0.142 HD
ENDBRANCH   1   2
BRANCH   1   4
ATOM      4  C   LEU A   1      16.490   6.718  -1.842  0.00  0.00    +0.224 C 
ATOM      5  O   LEU A   1      17.235   7.329  -1.083  0.00  0.00    -0.287 OA
ENDBRANCH   1   4
BRANCH   1   6
ATOM      6  CB  LEU A   1      16.567   4.238  -1.573  0.00  0.00    +0.025 C 
BRANCH   6   7
ATOM      7  CG  LEU A   1      17.202   2.869  -1.844  0.00  0.00    +0.002 C 
ATOM      8  CD2 LEU A   1      16.710   1.867  -0.810  0.00  0.00    +0.000 C 
ATOM      9  CD1 LEU A   1      16.852   2.394  -3.250  0.00  0.00    +0.000 C 
ENDBRANCH   6   7
ENDBRANCH   1   6
TORSDOF 4
REMARK  Name = ../refined-set-2016/1sgu/1sgu_pocket.pdb
REMARK  230 active torsions:
REMARK  status: ('A' for Active; 'I' for Inactive)
REMARK    1  A    between atoms: _1  and  _3
REMARK    2  A    between atoms: _3  and  _4
REMARK    3  A    between atoms: _3  and  _6
REMARK    4  A    between atoms: _6  and  _7
REMARK    5  A    between atoms: _7  and  _8
REMARK    6  A    between atoms: _8  and  _9
REMARK    7  A    between atoms: _18  and  _20
REMARK    8  A    between atoms: _20  and  _21
REMARK    9  A    between atoms: _20  and  _23
REMARK   10  A    between atoms: _23  and  _24
REMARK   11  A    between atoms: _27  and  _29
REMARK   12  A    between atoms: _29  and  _30
REMARK   13  A    between atoms: _29  and  _32
REMARK   14  A    between atoms: _32  and  _33
REMARK   15  A    between atoms: _36  and  _38
REMARK   16  A    between atoms: _38  and  _39
REMARK   17  A    between atoms: _38  and  _41
REMARK   18  A    between atoms: _41  and  _42
REMARK   19  A    between atoms: _45  and  _47
REMARK   20  A    between atoms: _47  and  _48
REMARK   21  A    between atoms: _47  and  _50
REMARK   22  A    between atoms: _50  and  _51
REMARK   23  A    between atoms: _54  and  _56
REMARK   24  A    between atoms: _56  and  _57
REMARK   25  A    between atoms: _59  and  _61
REMARK   26  A    between atoms: _61  and  _62
REMARK   27  A    between atoms: _65  and  _67
REMARK   28  A    between atoms: _67  and  _68
REMARK   29  A    between atoms: _67  and  _70
REMARK   30  A    between atoms: _70  and  _71
REMARK   31  A    between atoms: _74  and  _76
REMARK   32  A    between atoms: _76  and  _77
REMARK   33  A    between atoms: _76  and  _79
REMARK   34  A    between atoms: _79  and  _80
REMARK   35  A    between atoms: _83  and  _85
REMARK   36  A    between atoms: _85  and  _86
REMARK   37  A    between atoms: _85  and  _88
REMARK   38  A    between atoms: _88  and  _89
REMARK   39  A    between atoms: _92  and  _94
REMARK   40  A    between atoms: _94  and  _95
REMARK   41  A    between atoms: _94  and  _97
REMARK   42  A    between atoms: _97  and  _98
REMARK   43  A    between atoms: _101  and  _103
REMARK   44  A    between atoms: _103  and  _104
REMARK   45  A    between atoms: _103  and  _106
REMARK   46  A    between atoms: _106  and  _107
REMARK   47  A    between atoms: _113  and  _115
REMARK   48  A    between atoms: _115  and  _116
REMARK   49  A    between atoms: _115  and  _118
REMARK   50  A    between atoms: _118  and  _119
REMARK   51  A    between atoms: _119  and  _120
REMARK   52  A    between atoms: _120  and  _121
REMARK   53  A    between atoms: _121  and  _122
REMARK   54  A    between atoms: _126  and  _128
REMARK   55  A    between atoms: _128  and  _129
REMARK   56  A    between atoms: _128  and  _131
REMARK   57  A    between atoms: _131  and  _132
REMARK   58  A    between atoms: _132  and  _133
REMARK   59  A    between atoms: _135  and  _137
REMARK   60  A    between atoms: _137  and  _138
REMARK   61  A    between atoms: _137  and  _140
REMARK   62  A    between atoms: _140  and  _141
REMARK   63  A    between atoms: _144  and  _146
REMARK   64  A    between atoms: _146  and  _147
REMARK   65  A    between atoms: _149  and  _151
REMARK   66  A    between atoms: _151  and  _152
REMARK   67  A    between atoms: _154  and  _156
REMARK   68  A    between atoms: _156  and  _157
REMARK   69  A    between atoms: _156  and  _159
REMARK   70  A    between atoms: _159  and  _160
REMARK   71  A    between atoms: _163  and  _165
REMARK   72  A    between atoms: _165  and  _166
REMARK   73  A    between atoms: _168  and  _170
REMARK   74  A    between atoms: _170  and  _171
REMARK   75  A    between atoms: _173  and  _175
REMARK   76  A    between atoms: _175  and  _176
REMARK   77  A    between atoms: _175  and  _178
REMARK   78  A    between atoms: _178  and  _179
REMARK   79  A    between atoms: _185  and  _187
REMARK   80  A    between atoms: _187  and  _188
REMARK   81  A    between atoms: _187  and  _190
REMARK   82  A    between atoms: _193  and  _195
REMARK   83  A    between atoms: _195  and  _196
REMARK   84  A    between atoms: _195  and  _198
REMARK   85  A    between atoms: _201  and  _203
REMARK   86  A    between atoms: _203  and  _204
REMARK   87  A    between atoms: _203  and  _206
REMARK   88  A    between atoms: _206  and  _207
REMARK   89  A    between atoms: _211  and  _212
REMARK   90  A    between atoms: _217  and  _219
REMARK   91  A    between atoms: _219  and  _220
REMARK   92  A    between atoms: _219  and  _222
REMARK   93  A    between atoms: _222  and  _223
REMARK   94  A    between atoms: _227  and  _228
REMARK   95  A    between atoms: _233  and  _235
REMARK   96  A    between atoms: _235  and  _236
REMARK   97  A    between atoms: _239  and  _241
REMARK   98  A    between atoms: _241  and  _242
REMARK   99  A    between atoms: _241  and  _244
REMARK  100  A    between atoms: _244  and  _245
REMARK  101  A    between atoms: _250  and  _252
REMARK  102  A    between atoms: _252  and  _253
REMARK  103  A    between atoms: _252  and  _255
REMARK  104  A    between atoms: _258  and  _260
REMARK  105  A    between atoms: _260  and  _261
REMARK  106  A    between atoms: _260  and  _263
REMARK  107  A    between atoms: _263  and  _264
REMARK  108  A    between atoms: _267  and  _269
REMARK  109  A    between atoms: _269  and  _270
REMARK  110  A    between atoms: _272  and  _274
REMARK  111  A    between atoms: _274  and  _275
REMARK  112  A    between atoms: _274  and  _277
REMARK  113  A    between atoms: _277  and  _278
REMARK  114  A    between atoms: _278  and  _279
REMARK  115  A    between atoms: _279  and  _280
REMARK  116  A    between atoms: _289  and  _291
REMARK  117  A    between atoms: _291  and  _292
REMARK  118  A    between atoms: _291  and  _294
REMARK  119  A    between atoms: _294  and  _295
REMARK  120  A    between atoms: _300  and  _302
REMARK  121  A    between atoms: _302  and  _303
REMARK  122  A    between atoms: _302  and  _305
REMARK  123  A    between atoms: _305  and  _306
REMARK  124  A    between atoms: _306  and  _307
REMARK  125  A    between atoms: _307  and  _308
REMARK  126  A    between atoms: _317  and  _319
REMARK  127  A    between atoms: _319  and  _320
REMARK  128  A    between atoms: _319  and  _322
REMARK  129  A    between atoms: _322  and  _323
REMARK  130  A    between atoms: _326  and  _328
REMARK  131  A    between atoms: _328  and  _329
REMARK  132  A    between atoms: _328  and  _331
REMARK  133  A    between atoms: _331  and  _332
REMARK  134  A    between atoms: _335  and  _337
REMARK  135  A    between atoms: _337  and  _338
REMARK  136  A    between atoms: _337  and  _340
REMARK  137  A    between atoms: _340  and  _341
REMARK  138  A    between atoms: _344  and  _346
REMARK  139  A    between atoms: _346  and  _347
REMARK  140  A    between atoms: _346  and  _349
REMARK  141  A    between atoms: _349  and  _350
REMARK  142  A    between atoms: _353  and  _355
REMARK  143  A    between atoms: _355  and  _356
REMARK  144  A    between atoms: _358  and  _360
REMARK  145  A    between atoms: _360  and  _361
REMARK  146  A    between atoms: _364  and  _366
REMARK  147  A    between atoms: _366  and  _367
REMARK  148  A    between atoms: _366  and  _369
REMARK  149  A    between atoms: _369  and  _370
REMARK  150  A    between atoms: _373  and  _375
REMARK  151  A    between atoms: _375  and  _376
REMARK  152  A    between atoms: _375  and  _378
REMARK  153  A    between atoms: _378  and  _379
REMARK  154  A    between atoms: _382  and  _384
REMARK  155  A    between atoms: _384  and  _385
REMARK  156  A    between atoms: _384  and  _387
REMARK  157  A    between atoms: _387  and  _388
REMARK  158  A    between atoms: _391  and  _393
REMARK  159  A    between atoms: _393  and  _394
REMARK  160  A    between atoms: _393  and  _396
REMARK  161  A    between atoms: _396  and  _397
REMARK  162  A    between atoms: _400  and  _402
REMARK  163  A    between atoms: _402  and  _403
REMARK  164  A    between atoms: _402  and  _405
REMARK  165  A    between atoms: _405  and  _406
REMARK  166  A    between atoms: _412  and  _414
REMARK  167  A    between atoms: _414  and  _415
REMARK  168  A    between atoms: _414  and  _417
REMARK  169  A    between atoms: _417  and  _418
REMARK  170  A    between atoms: _418  and  _419
REMARK  171  A    between atoms: _419  and  _420
REMARK  172  A    between atoms: _420  and  _421
REMARK  173  A    between atoms: _425  and  _427
REMARK  174  A    between atoms: _427  and  _428
REMARK  175  A    between atoms: _427  and  _430
REMARK  176  A    between atoms: _430  and  _431
REMARK  177  A    between atoms: _431  and  _432
REMARK  178  A    between atoms: _434  and  _436
REMARK  179  A    between atoms: _436  and  _437
REMARK  180  A    between atoms: _436  and  _439
REMARK  181  A    between atoms: _439  and  _440
REMARK  182  A    between atoms: _443  and  _445
REMARK  183  A    between atoms: _445  and  _446
REMARK  184  A    between atoms: _448  and  _450
REMARK  185  A    between atoms: _450  and  _451
REMARK  186  A    between atoms: _453  and  _455
REMARK  187  A    between atoms: _455  and  _456
REMARK  188  A    between atoms: _455  and  _458
REMARK  189  A    between atoms: _458  and  _459
REMARK  190  A    between atoms: _462  and  _464
REMARK  191  A    between atoms: _464  and  _465
REMARK  192  A    between atoms: _467  and  _469
REMARK  193  A    between atoms: _469  and  _470
REMARK  194  A    between atoms: _472  and  _474
REMARK  195  A    between atoms: _474  and  _475
REMARK  196  A    between atoms: _474  and  _477
REMARK  197  A    between atoms: _480  and  _482
REMARK  198  A    between atoms: _482  and  _483
REMARK  199  A    between atoms: _482  and  _485
REMARK  200  A    between atoms: _485  and  _486
REMARK  201  A    between atoms: _489  and  _491
REMARK  202  A    between atoms: _491  and  _492
REMARK  203  A    between atoms: _491  and  _494
REMARK  204  A    between atoms: _494  and  _495
REMARK  205  A    between atoms: _499  and  _500
REMARK  206  A    between atoms: _505  and  _507
REMARK  207  A    between atoms: _507  and  _508
REMARK  208  A    between atoms: _511  and  _513
REMARK  209  A    between atoms: _513  and  _514
REMARK  210  A    between atoms: _513  and  _516
REMARK  211  A    between atoms: _516  and  _517
REMARK  212  A    between atoms: _522  and  _524
REMARK  213  A    between atoms: _524  and  _525
REMARK  214  A    between atoms: _524  and  _527
REMARK  215  A    between atoms: _530  and  _532
REMARK  216  A    between atoms: _532  and  _533
REMARK  217  A    between atoms: _532  and  _535
REMARK  218  A    between atoms: _535  and  _536
REMARK  219  A    between atoms: _539  and  _541
REMARK  220  A    between atoms: _541  and  _542
REMARK  221  A    between atoms: _544  and  _546
REMARK  222  A    between atoms: _546  and  _547
REMARK  223  A    between atoms: _546  and  _549
REMARK  224  A    between atoms: _549  and  _550
REMARK  225  A    between atoms: _550  and  _551
REMARK  226  A    between atoms: _551  and  _552
REMARK  227  A    between atoms: _561  and  _563
REMARK  228  A    between atoms: _563  and  _564
REMARK  229  A    between atoms: _563  and  _566
REMARK  230  A    between atoms: _566  and  _567
REMARK                            x       y       z     vdW  Elec       q    Type
REMARK                         _______ _______ _______ _____ _____    ______ ____
ROOT
ATOM      1  C   VAL A   5      22.743   6.074   4.485  0.00  0.00    +0.241 C 
ATOM      2  N   ILE A   6      24.049   5.925   4.699  0.00  0.00    -0.297 N 
ATOM      3  H   ILE A   6      24.435   6.121   5.644  0.00  0.00    +0.150 HD
ATOM      4  O   VAL A   5      22.229   5.928   3.386  0.00  0.00    -0.273 OA
ENDROOT
BRANCH   2   5
ATOM      5  CA  ILE A   6      24.952   5.491   3.633  0.00  0.00    +0.149 C 
BRANCH   5   6
ATOM      6  C   ILE A   6      25.182   3.992   3.906  0.00  0.00    +0.241 C 
ATOM      7  O   ILE A   6      25.807   3.620   4.905  0.00  0.00    -0.273 OA
ATOM      8  N   GLY A   7      24.658   3.140   3.027  0.00  0.00    -0.295 N 
ATOM      9  H   GLY A   7      24.145   3.509   2.201  0.00  0.00    +0.150 HD
BRANCH   8  10
ATOM     10  CA  GLY A   7      24.792   1.696   3.203  0.00  0.00    +0.176 C 
BRANCH  10  11
ATOM     11  C   GLY A   7      26.041   1.073   2.611  0.00  0.00    +0.243 C 
ATOM     12  N   ARG A   8      26.154  -0.246   2.740  0.00  0.00    -0.297 N 
ATOM     13  H   ARG A   8      25.392  -0.774   3.211  0.00  0.00    +0.150 HD
ATOM     14  O   GLY A   7      26.877   1.760   2.029  0.00  0.00    -0.273 OA
BRANCH  12  15
ATOM     15  CA  ARG A   8      27.315  -0.974   2.241  0.00  0.00    +0.149 C 
BRANCH  15  16
ATOM     16  C   ARG A   8      27.571  -0.811   0.742  0.00  0.00    +0.241 C 
ATOM     17  O   ARG A   8      28.717  -0.913   0.301  0.00  0.00    -0.273 OA
ATOM     18  N   ASN A   9      26.518  -0.571  -0.044  0.00  0.00    -0.298 N 
ATOM     19  H   ASN A   9      25.569  -0.496   0.374  0.00  0.00    +0.150 HD
BRANCH  18  20
ATOM     20  CA  ASN A   9      26.690  -0.412  -1.492  0.00  0.00    +0.146 C 
BRANCH  20  21
ATOM     21  C   ASN A   9      27.594   0.774  -1.840  0.00  0.00    +0.227 C 
ATOM     22  O   ASN A   9      28.184   0.806  -2.911  0.00  0.00    -0.286 OA
ENDBRANCH  20  21
BRANCH  20  23
ATOM     23  CB  ASN A   9      25.335  -0.238  -2.194  0.00  0.00    +0.112 C 
BRANCH  23  24
ATOM     24  CG  ASN A   9      24.729   1.128  -1.952  0.00  0.00    +0.222 C 
ATOM     25  OD1 ASN A   9      24.500   1.518  -0.810  0.00  0.00    -0.275 OA
ATOM     26  ND2 ASN A   9      24.472   1.867  -3.029  0.00  0.00    -0.329 N 
ATOM     27 HD21 ASN A   9      24.061   2.816  -2.922  0.00  0.00    +0.145 HD
ATOM     28 HD22 ASN A   9      24.683   1.495  -3.977  0.00  0.00    +0.145 HD
ENDBRANCH  23  24
ENDBRANCH  20  23
ENDBRANCH  18  20
ENDBRANCH  15  16
BRANCH  15  29
ATOM     29  CB  ARG A   8      27.191  -2.475   2.577  0.00  0.00    +0.033 C 
BRANCH  29  30
ATOM     30  CG  ARG A   8      27.216  -2.784   4.092  0.00  0.00    +0.045 C 
BRANCH  30  31
ATOM     31  CD  ARG A   8      27.269  -4.309   4.402  0.00  0.00    +0.174 C 
BRANCH  31  32
ATOM     32  NE  ARG A   8      26.099  -5.008   3.874  0.00  0.00    -0.265 N 
ATOM     33  HE  ARG A   8      25.228  -4.983   4.441  0.00  0.00    +0.259 HD
ATOM     34  CZ  ARG A   8      26.064  -5.676   2.720  0.00  0.00    +0.342 C 
ATOM     35  NH2 ARG A   8      24.924  -6.205   2.304  0.00  0.00    -0.292 N 
ATOM     36 HH21 ARG A   8      24.062  -6.099   2.876  0.00  0.00    +0.255 HD
ATOM     37 HH22 ARG A   8      24.890  -6.727   1.405  0.00  0.00    +0.255 HD
ATOM     38  NH1 ARG A   8      27.143  -5.770   1.955  0.00  0.00    -0.292 N 
ATOM     39 HH11 ARG A   8      28.032  -5.319   2.252  0.00  0.00    +0.255 HD
ATOM     40 HH12 ARG A   8      27.100  -6.294   1.058  0.00  0.00    +0.255 HD
ENDBRANCH  31  32
ENDBRANCH  30  31
ENDBRANCH  29  30
ENDBRANCH  15  29
ENDBRANCH  12  15
ENDBRANCH  10  11
ENDBRANCH   8  10
ENDBRANCH   5   6
BRANCH   5  41
ATOM     41  CB  ILE A   6      26.297   6.260   3.684  0.00  0.00    +0.027 C 
ATOM     42  CG2 ILE A   6      27.262   5.693   2.654  0.00  0.00    +0.002 C 
BRANCH  41  43
ATOM     43  CG1 ILE A   6      26.052   7.745   3.398  0.00  0.00    +0.002 C 
ATOM     44  CD1 ILE A   6      27.234   8.624   3.724  0.00  0.00    +0.000 C 
ENDBRANCH  41  43
ENDBRANCH   5  41
ENDBRANCH   2   5
BRANCH   1  45
ATOM     45  CA  VAL A   5      21.898   6.454   5.699  0.00  0.00    +0.149 C 
BRANCH  45  48
ATOM     46  C   ASN A   4      20.894   8.550   6.358  0.00  0.00    +0.241 C 
ATOM     47  O   ASN A   4      21.626   8.639   7.344  0.00  0.00    -0.273 OA
ATOM     48  N   VAL A   5      20.965   7.548   5.496  0.00  0.00    -0.297 N 
ATOM     49  H   VAL A   5      20.344   7.544   4.662  0.00  0.00    +0.150 HD
BRANCH  46  50
ATOM     50  CA  ASN A   4      19.841   9.613   6.070  0.00  0.00    +0.158 C 
BRANCH  50  53
ATOM     51  C   ALA A   3      18.412   8.990   7.921  0.00  0.00    +0.241 C 
ATOM     52  O   ALA A   3      18.162   7.900   7.404  0.00  0.00    -0.273 OA
ATOM     53  N   ASN A   4      19.195   9.898   7.343  0.00  0.00    -0.297 N 
ATOM     54  H   ASN A   4      19.346  10.818   7.804  0.00  0.00    +0.150 HD
BRANCH  51  55
ATOM     55  CA  ALA A   3      17.815   9.362   9.275  0.00  0.00    +0.149 C 
ATOM     56  CB  ALA A   3      18.628   8.708  10.394  0.00  0.00    +0.031 C 
BRANCH  55  59
ATOM     57  C   PRO A   2      15.612   9.562  10.287  0.00  0.00    +0.241 C 
ATOM     58  O   PRO A   2      16.016  10.412  11.077  0.00  0.00    -0.273 OA
ATOM     59  N   ALA A   3      16.406   8.985   9.387  0.00  0.00    -0.297 N 
ATOM     60  H   ALA A   3      16.019   8.256   8.755  0.00  0.00    +0.150 HD
BRANCH  57  63
ATOM     61  C   THR A   1      13.731   8.698   7.932  0.00  0.00    +0.244 C 
ATOM     62  N   PRO A   2      13.828   8.247   9.179  0.00  0.00    -0.272 N 
ATOM     63  CA  PRO A   2      14.152   9.118  10.305  0.00  0.00    +0.152 C 
ATOM     64  CB  PRO A   2      13.806   8.255  11.514  0.00  0.00    +0.031 C 
ATOM     65  CG  PRO A   2      14.024   6.860  11.004  0.00  0.00    +0.024 C 
ATOM     66  CD  PRO A   2      13.448   6.899   9.637  0.00  0.00    +0.094 C 
ATOM     67  O   THR A   1      13.873   9.889   7.652  0.00  0.00    -0.273 OA
BRANCH  61  68
ATOM     68  CA  THR A   1      13.397   7.681   6.872  0.00  0.00    +0.172 C 
BRANCH  68  69
ATOM     69  N   THR A   1      12.408   8.260   5.992  0.00  0.00    -0.236 NA
ATOM     70  H   THR A   1      12.298   9.293   5.953  0.00  0.00    +0.142 HD
ENDBRANCH  68  69
BRANCH  68  71
ATOM     71  CB  THR A   1      14.696   7.255   6.131  0.00  0.00    +0.135 C 
ATOM     72  CG2 THR A   1      15.316   8.432   5.393  0.00  0.00    +0.034 C 
BRANCH  71  73
ATOM     73  OG1 THR A   1      15.638   6.755   7.090  0.00  0.00    -0.383 OA
ATOM     74  HG1 THR A   1      16.468   6.482   6.624  0.00  0.00    +0.210 HD
ENDBRANCH  71  73
ENDBRANCH  68  71
ENDBRANCH  61  68
ENDBRANCH  57  63
ENDBRANCH  55  59
ENDBRANCH  51  55
ENDBRANCH  50  53
BRANCH  50  75
ATOM     75  CB  ASN A   4      20.498  10.868   5.495  0.00  0.00    +0.114 C 
BRANCH  75  76
ATOM     76  CG  ASN A   4      19.484  11.952   5.179  0.00  0.00    +0.222 C 
ATOM     77  ND2 ASN A   4      19.896  13.214   5.284  0.00  0.00    -0.329 N 
ATOM     78 HD21 ASN A   4      20.871  13.420   5.582  0.00  0.00    +0.145 HD
ATOM     79 HD22 ASN A   4      19.243  13.994   5.068  0.00  0.00    +0.145 HD
ATOM     80  OD1 ASN A   4      18.344  11.652   4.832  0.00  0.00    -0.275 OA
ENDBRANCH  75  76
ENDBRANCH  50  75
ENDBRANCH  46  50
ENDBRANCH  45  48
BRANCH  45  81
ATOM     81  CB  VAL A   5      21.123   5.195   6.172  0.00  0.00    +0.027 C 
ATOM     82  CG2 VAL A   5      20.847   5.301   7.665  0.00  0.00    +0.002 C 
ATOM     83  CG1 VAL A   5      21.905   3.937   5.857  0.00  0.00    +0.002 C 
ENDBRANCH  45  81
ENDBRANCH   1  45
TORSDOF 30
REMARK  Name = ../refined-set-2016/1sgu/1sgu_pocket.pdb
REMARK  230 active torsions:
REMARK  status: ('A' for Active; 'I' for Inactive)
REMARK    1  A    between atoms: _1  and  _3
REMARK    2  A    between atoms: _3  and  _4
REMARK    3  A    between atoms: _3  and  _6
REMARK    4  A    between atoms: _6  and  _7
REMARK    5  A    between atoms: _7  and  _8
REMARK    6  A    between atoms: _8  and  _9
REMARK    7  A    between atoms: _18  and  _20
REMARK    8  A    between atoms: _20  and  _21
REMARK    9  A    between atoms: _20  and  _23
REMARK   10  A    between atoms: _23  and  _24
REMARK   11  A    between atoms: _27  and  _29
REMARK   12  A    between atoms: _29  and  _30
REMARK   13  A    between atoms: _29  and  _32
REMARK   14  A    between atoms: _32  and  _33
REMARK   15  A    between atoms: _36  and  _38
REMARK   16  A    between atoms: _38  and  _39
REMARK   17  A    between atoms: _38  and  _41
REMARK   18  A    between atoms: _41  and  _42
REMARK   19  A    between atoms: _45  and  _47
REMARK   20  A    between atoms: _47  and  _48
REMARK   21  A    between atoms: _47  and  _50
REMARK   22  A    between atoms: _50  and  _51
REMARK   23  A    between atoms: _54  and  _56
REMARK   24  A    between atoms: _56  and  _57
REMARK   25  A    between atoms: _59  and  _61
REMARK   26  A    between atoms: _61  and  _62
REMARK   27  A    between atoms: _65  and  _67
REMARK   28  A    between atoms: _67  and  _68
REMARK   29  A    between atoms: _67  and  _70
REMARK   30  A    between atoms: _70  and  _71
REMARK   31  A    between atoms: _74  and  _76
REMARK   32  A    between atoms: _76  and  _77
REMARK   33  A    between atoms: _76  and  _79
REMARK   34  A    between atoms: _79  and  _80
REMARK   35  A    between atoms: _83  and  _85
REMARK   36  A    between atoms: _85  and  _86
REMARK   37  A    between atoms: _85  and  _88
REMARK   38  A    between atoms: _88  and  _89
REMARK   39  A    between atoms: _92  and  _94
REMARK   40  A    between atoms: _94  and  _95
REMARK   41  A    between atoms: _94  and  _97
REMARK   42  A    between atoms: _97  and  _98
REMARK   43  A    between atoms: _101  and  _103
REMARK   44  A    between atoms: _103  and  _104
REMARK   45  A    between atoms: _103  and  _106
REMARK   46  A    between atoms: _106  and  _107
REMARK   47  A    between atoms: _113  and  _115
REMARK   48  A    between atoms: _115  and  _116
REMARK   49  A    between atoms: _115  and  _118
REMARK   50  A    between atoms: _118  and  _119
REMARK   51  A    between atoms: _119  and  _120
REMARK   52  A    between atoms: _120  and  _121
REMARK   53  A    between atoms: _121  and  _122
REMARK   54  A    between atoms: _126  and  _128
REMARK   55  A    between atoms: _128  and  _129
REMARK   56  A    between atoms: _128  and  _131
REMARK   57  A    between atoms: _131  and  _132
REMARK   58  A    between atoms: _132  and  _133
REMARK   59  A    between atoms: _135  and  _137
REMARK   60  A    between atoms: _137  and  _138
REMARK   61  A    between atoms: _137  and  _140
REMARK   62  A    between atoms: _140  and  _141
REMARK   63  A    between atoms: _144  and  _146
REMARK   64  A    between atoms: _146  and  _147
REMARK   65  A    between atoms: _149  and  _151
REMARK   66  A    between atoms: _151  and  _152
REMARK   67  A    between atoms: _154  and  _156
REMARK   68  A    between atoms: _156  and  _157
REMARK   69  A    between atoms: _156  and  _159
REMARK   70  A    between atoms: _159  and  _160
REMARK   71  A    between atoms: _163  and  _165
REMARK   72  A    between atoms: _165  and  _166
REMARK   73  A    between atoms: _168  and  _170
REMARK   74  A    between atoms: _170  and  _171
REMARK   75  A    between atoms: _173  and  _175
REMARK   76  A    between atoms: _175  and  _176
REMARK   77  A    between atoms: _175  and  _178
REMARK   78  A    between atoms: _178  and  _179
REMARK   79  A    between atoms: _185  and  _187
REMARK   80  A    between atoms: _187  and  _188
REMARK   81  A    between atoms: _187  and  _190
REMARK   82  A    between atoms: _193  and  _195
REMARK   83  A    between atoms: _195  and  _196
REMARK   84  A    between atoms: _195  and  _198
REMARK   85  A    between atoms: _201  and  _203
REMARK   86  A    between atoms: _203  and  _204
REMARK   87  A    between atoms: _203  and  _206
REMARK   88  A    between atoms: _206  and  _207
REMARK   89  A    between atoms: _211  and  _212
REMARK   90  A    between atoms: _217  and  _219
REMARK   91  A    between atoms: _219  and  _220
REMARK   92  A    between atoms: _219  and  _222
REMARK   93  A    between atoms: _222  and  _223
REMARK   94  A    between atoms: _227  and  _228
REMARK   95  A    between atoms: _233  and  _235
REMARK   96  A    between atoms: _235  and  _236
REMARK   97  A    between atoms: _239  and  _241
REMARK   98  A    between atoms: _241  and  _242
REMARK   99  A    between atoms: _241  and  _244
REMARK  100  A    between atoms: _244  and  _245
REMARK  101  A    between atoms: _250  and  _252
REMARK  102  A    between atoms: _252  and  _253
REMARK  103  A    between atoms: _252  and  _255
REMARK  104  A    between atoms: _258  and  _260
REMARK  105  A    between atoms: _260  and  _261
REMARK  106  A    between atoms: _260  and  _263
REMARK  107  A    between atoms: _263  and  _264
REMARK  108  A    between atoms: _267  and  _269
REMARK  109  A    between atoms: _269  and  _270
REMARK  110  A    between atoms: _272  and  _274
REMARK  111  A    between atoms: _274  and  _275
REMARK  112  A    between atoms: _274  and  _277
REMARK  113  A    between atoms: _277  and  _278
REMARK  114  A    between atoms: _278  and  _279
REMARK  115  A    between atoms: _279  and  _280
REMARK  116  A    between atoms: _289  and  _291
REMARK  117  A    between atoms: _291  and  _292
REMARK  118  A    between atoms: _291  and  _294
REMARK  119  A    between atoms: _294  and  _295
REMARK  120  A    between atoms: _300  and  _302
REMARK  121  A    between atoms: _302  and  _303
REMARK  122  A    between atoms: _302  and  _305
REMARK  123  A    between atoms: _305  and  _306
REMARK  124  A    between atoms: _306  and  _307
REMARK  125  A    between atoms: _307  and  _308
REMARK  126  A    between atoms: _317  and  _319
REMARK  127  A    between atoms: _319  and  _320
REMARK  128  A    between atoms: _319  and  _322
REMARK  129  A    between atoms: _322  and  _323
REMARK  130  A    between atoms: _326  and  _328
REMARK  131  A    between atoms: _328  and  _329
REMARK  132  A    between atoms: _328  and  _331
REMARK  133  A    between atoms: _331  and  _332
REMARK  134  A    between atoms: _335  and  _337
REMARK  135  A    between atoms: _337  and  _338
REMARK  136  A    between atoms: _337  and  _340
REMARK  137  A    between atoms: _340  and  _341
REMARK  138  A    between atoms: _344  and  _346
REMARK  139  A    between atoms: _346  and  _347
REMARK  140  A    between atoms: _346  and  _349
REMARK  141  A    between atoms: _349  and  _350
REMARK  142  A    between atoms: _353  and  _355
REMARK  143  A    between atoms: _355  and  _356
REMARK  144  A    between atoms: _358  and  _360
REMARK  145  A    between atoms: _360  and  _361
REMARK  146  A    between atoms: _364  and  _366
REMARK  147  A    between atoms: _366  and  _367
REMARK  148  A    between atoms: _366  and  _369
REMARK  149  A    between atoms: _369  and  _370
REMARK  150  A    between atoms: _373  and  _375
REMARK  151  A    between atoms: _375  and  _376
REMARK  152  A    between atoms: _375  and  _378
REMARK  153  A    between atoms: _378  and  _379
REMARK  154  A    between atoms: _382  and  _384
REMARK  155  A    between atoms: _384  and  _385
REMARK  156  A    between atoms: _384  and  _387
REMARK  157  A    between atoms: _387  and  _388
REMARK  158  A    between atoms: _391  and  _393
REMARK  159  A    between atoms: _393  and  _394
REMARK  160  A    between atoms: _393  and  _396
REMARK  161  A    between atoms: _396  and  _397
REMARK  162  A    between atoms: _400  and  _402
REMARK  163  A    between atoms: _402  and  _403
REMARK  164  A    between atoms: _402  and  _405
REMARK  165  A    between atoms: _405  and  _406
REMARK  166  A    between atoms: _412  and  _414
REMARK  167  A    between atoms: _414  and  _415
REMARK  168  A    between atoms: _414  and  _417
REMARK  169  A    between atoms: _417  and  _418
REMARK  170  A    between atoms: _418  and  _419
REMARK  171  A    between atoms: _419  and  _420
REMARK  172  A    between atoms: _420  and  _421
REMARK  173  A    between atoms: _425  and  _427
REMARK  174  A    between atoms: _427  and  _428
REMARK  175  A    between atoms: _427  and  _430
REMARK  176  A    between atoms: _430  and  _431
REMARK  177  A    between atoms: _431  and  _432
REMARK  178  A    between atoms: _434  and  _436
REMARK  179  A    between atoms: _436  and  _437
REMARK  180  A    between atoms: _436  and  _439
REMARK  181  A    between atoms: _439  and  _440
REMARK  182  A    between atoms: _443  and  _445
REMARK  183  A    between atoms: _445  and  _446
REMARK  184  A    between atoms: _448  and  _450
REMARK  185  A    between atoms: _450  and  _451
REMARK  186  A    between atoms: _453  and  _455
REMARK  187  A    between atoms: _455  and  _456
REMARK  188  A    between atoms: _455  and  _458
REMARK  189  A    between atoms: _458  and  _459
REMARK  190  A    between atoms: _462  and  _464
REMARK  191  A    between atoms: _464  and  _465
REMARK  192  A    between atoms: _467  and  _469
REMARK  193  A    between atoms: _469  and  _470
REMARK  194  A    between atoms: _472  and  _474
REMARK  195  A    between atoms: _474  and  _475
REMARK  196  A    between atoms: _474  and  _477
REMARK  197  A    between atoms: _480  and  _482
REMARK  198  A    between atoms: _482  and  _483
REMARK  199  A    between atoms: _482  and  _485
REMARK  200  A    between atoms: _485  and  _486
REMARK  201  A    between atoms: _489  and  _491
REMARK  202  A    between atoms: _491  and  _492
REMARK  203  A    between atoms: _491  and  _494
REMARK  204  A    between atoms: _494  and  _495
REMARK  205  A    between atoms: _499  and  _500
REMARK  206  A    between atoms: _505  and  _507
REMARK  207  A    between atoms: _507  and  _508
REMARK  208  A    between atoms: _511  and  _513
REMARK  209  A    between atoms: _513  and  _514
REMARK  210  A    between atoms: _513  and  _516
REMARK  211  A    between atoms: _516  and  _517
REMARK  212  A    between atoms: _522  and  _524
REMARK  213  A    between atoms: _524  and  _525
REMARK  214  A    between atoms: _524  and  _527
REMARK  215  A    between atoms: _530  and  _532
REMARK  216  A    between atoms: _532  and  _533
REMARK  217  A    between atoms: _532  and  _535
REMARK  218  A    between atoms: _535  and  _536
REMARK  219  A    between atoms: _539  and  _541
REMARK  220  A    between atoms: _541  and  _542
REMARK  221  A    between atoms: _544  and  _546
REMARK  222  A    between atoms: _546  and  _547
REMARK  223  A    between atoms: _546  and  _549
REMARK  224  A    between atoms: _549  and  _550
REMARK  225  A    between atoms: _550  and  _551
REMARK  226  A    between atoms: _551  and  _552
REMARK  227  A    between atoms: _561  and  _563
REMARK  228  A    between atoms: _563  and  _564
REMARK  229  A    between atoms: _563  and  _566
REMARK  230  A    between atoms: _566  and  _567
REMARK                            x       y       z     vdW  Elec       q    Type
REMARK                         _______ _______ _______ _____ _____    ______ ____
ROOT
ATOM      1  O   HOH     1      24.690   4.957  15.082  0.00  0.00    +0.000 OA
ENDROOT
TORSDOF 0
REMARK  Name = ../refined-set-2016/1sgu/1sgu_pocket.pdb
REMARK  230 active torsions:
REMARK  status: ('A' for Active; 'I' for Inactive)
REMARK    1  A    between atoms: _1  and  _3
REMARK    2  A    between atoms: _3  and  _4
REMARK    3  A    between atoms: _3  and  _6
REMARK    4  A    between atoms: _6  and  _7
REMARK    5  A    between atoms: _7  and  _8
REMARK    6  A    between atoms: _8  and  _9
REMARK    7  A    between atoms: _18  and  _20
REMARK    8  A    between atoms: _20  and  _21
REMARK    9  A    between atoms: _20  and  _23
REMARK   10  A    between atoms: _23  and  _24
REMARK   11  A    between atoms: _27  and  _29
REMARK   12  A    between atoms: _29  and  _30
REMARK   13  A    between atoms: _29  and  _32
REMARK   14  A    between atoms: _32  and  _33
REMARK   15  A    between atoms: _36  and  _38
REMARK   16  A    between atoms: _38  and  _39
REMARK   17  A    between atoms: _38  and  _41
REMARK   18  A    between atoms: _41  and  _42
REMARK   19  A    between atoms: _45  and  _47
REMARK   20  A    between atoms: _47  and  _48
REMARK   21  A    between atoms: _47  and  _50
REMARK   22  A    between atoms: _50  and  _51
REMARK   23  A    between atoms: _54  and  _56
REMARK   24  A    between atoms: _56  and  _57
REMARK   25  A    between atoms: _59  and  _61
REMARK   26  A    between atoms: _61  and  _62
REMARK   27  A    between atoms: _65  and  _67
REMARK   28  A    between atoms: _67  and  _68
REMARK   29  A    between atoms: _67  and  _70
REMARK   30  A    between atoms: _70  and  _71
REMARK   31  A    between atoms: _74  and  _76
REMARK   32  A    between atoms: _76  and  _77
REMARK   33  A    between atoms: _76  and  _79
REMARK   34  A    between atoms: _79  and  _80
REMARK   35  A    between atoms: _83  and  _85
REMARK   36  A    between atoms: _85  and  _86
REMARK   37  A    between atoms: _85  and  _88
REMARK   38  A    between atoms: _88  and  _89
REMARK   39  A    between atoms: _92  and  _94
REMARK   40  A    between atoms: _94  and  _95
REMARK   41  A    between atoms: _94  and  _97
REMARK   42  A    between atoms: _97  and  _98
REMARK   43  A    between atoms: _101  and  _103
REMARK   44  A    between atoms: _103  and  _104
REMARK   45  A    between atoms: _103  and  _106
REMARK   46  A    between atoms: _106  and  _107
REMARK   47  A    between atoms: _113  and  _115
REMARK   48  A    between atoms: _115  and  _116
REMARK   49  A    between atoms: _115  and  _118
REMARK   50  A    between atoms: _118  and  _119
REMARK   51  A    between atoms: _119  and  _120
REMARK   52  A    between atoms: _120  and  _121
REMARK   53  A    between atoms: _121  and  _122
REMARK   54  A    between atoms: _126  and  _128
REMARK   55  A    between atoms: _128  and  _129
REMARK   56  A    between atoms: _128  and  _131
REMARK   57  A    between atoms: _131  and  _132
REMARK   58  A    between atoms: _132  and  _133
REMARK   59  A    between atoms: _135  and  _137
REMARK   60  A    between atoms: _137  and  _138
REMARK   61  A    between atoms: _137  and  _140
REMARK   62  A    between atoms: _140  and  _141
REMARK   63  A    between atoms: _144  and  _146
REMARK   64  A    between atoms: _146  and  _147
REMARK   65  A    between atoms: _149  and  _151
REMARK   66  A    between atoms: _151  and  _152
REMARK   67  A    between atoms: _154  and  _156
REMARK   68  A    between atoms: _156  and  _157
REMARK   69  A    between atoms: _156  and  _159
REMARK   70  A    between atoms: _159  and  _160
REMARK   71  A    between atoms: _163  and  _165
REMARK   72  A    between atoms: _165  and  _166
REMARK   73  A    between atoms: _168  and  _170
REMARK   74  A    between atoms: _170  and  _171
REMARK   75  A    between atoms: _173  and  _175
REMARK   76  A    between atoms: _175  and  _176
REMARK   77  A    between atoms: _175  and  _178
REMARK   78  A    between atoms: _178  and  _179
REMARK   79  A    between atoms: _185  and  _187
REMARK   80  A    between atoms: _187  and  _188
REMARK   81  A    between atoms: _187  and  _190
REMARK   82  A    between atoms: _193  and  _195
REMARK   83  A    between atoms: _195  and  _196
REMARK   84  A    between atoms: _195  and  _198
REMARK   85  A    between atoms: _201  and  _203
REMARK   86  A    between atoms: _203  and  _204
REMARK   87  A    between atoms: _203  and  _206
REMARK   88  A    between atoms: _206  and  _207
REMARK   89  A    between atoms: _211  and  _212
REMARK   90  A    between atoms: _217  and  _219
REMARK   91  A    between atoms: _219  and  _220
REMARK   92  A    between atoms: _219  and  _222
REMARK   93  A    between atoms: _222  and  _223
REMARK   94  A    between atoms: _227  and  _228
REMARK   95  A    between atoms: _233  and  _235
REMARK   96  A    between atoms: _235  and  _236
REMARK   97  A    between atoms: _239  and  _241
REMARK   98  A    between atoms: _241  and  _242
REMARK   99  A    between atoms: _241  and  _244
REMARK  100  A    between atoms: _244  and  _245
REMARK  101  A    between atoms: _250  and  _252
REMARK  102  A    between atoms: _252  and  _253
REMARK  103  A    between atoms: _252  and  _255
REMARK  104  A    between atoms: _258  and  _260
REMARK  105  A    between atoms: _260  and  _261
REMARK  106  A    between atoms: _260  and  _263
REMARK  107  A    between atoms: _263  and  _264
REMARK  108  A    between atoms: _267  and  _269
REMARK  109  A    between atoms: _269  and  _270
REMARK  110  A    between atoms: _272  and  _274
REMARK  111  A    between atoms: _274  and  _275
REMARK  112  A    between atoms: _274  and  _277
REMARK  113  A    between atoms: _277  and  _278
REMARK  114  A    between atoms: _278  and  _279
REMARK  115  A    between atoms: _279  and  _280
REMARK  116  A    between atoms: _289  and  _291
REMARK  117  A    between atoms: _291  and  _292
REMARK  118  A    between atoms: _291  and  _294
REMARK  119  A    between atoms: _294  and  _295
REMARK  120  A    between atoms: _300  and  _302
REMARK  121  A    between atoms: _302  and  _303
REMARK  122  A    between atoms: _302  and  _305
REMARK  123  A    between atoms: _305  and  _306
REMARK  124  A    between atoms: _306  and  _307
REMARK  125  A    between atoms: _307  and  _308
REMARK  126  A    between atoms: _317  and  _319
REMARK  127  A    between atoms: _319  and  _320
REMARK  128  A    between atoms: _319  and  _322
REMARK  129  A    between atoms: _322  and  _323
REMARK  130  A    between atoms: _326  and  _328
REMARK  131  A    between atoms: _328  and  _329
REMARK  132  A    between atoms: _328  and  _331
REMARK  133  A    between atoms: _331  and  _332
REMARK  134  A    between atoms: _335  and  _337
REMARK  135  A    between atoms: _337  and  _338
REMARK  136  A    between atoms: _337  and  _340
REMARK  137  A    between atoms: _340  and  _341
REMARK  138  A    between atoms: _344  and  _346
REMARK  139  A    between atoms: _346  and  _347
REMARK  140  A    between atoms: _346  and  _349
REMARK  141  A    between atoms: _349  and  _350
REMARK  142  A    between atoms: _353  and  _355
REMARK  143  A    between atoms: _355  and  _356
REMARK  144  A    between atoms: _358  and  _360
REMARK  145  A    between atoms: _360  and  _361
REMARK  146  A    between atoms: _364  and  _366
REMARK  147  A    between atoms: _366  and  _367
REMARK  148  A    between atoms: _366  and  _369
REMARK  149  A    between atoms: _369  and  _370
REMARK  150  A    between atoms: _373  and  _375
REMARK  151  A    between atoms: _375  and  _376
REMARK  152  A    between atoms: _375  and  _378
REMARK  153  A    between atoms: _378  and  _379
REMARK  154  A    between atoms: _382  and  _384
REMARK  155  A    between atoms: _384  and  _385
REMARK  156  A    between atoms: _384  and  _387
REMARK  157  A    between atoms: _387  and  _388
REMARK  158  A    between atoms: _391  and  _393
REMARK  159  A    between atoms: _393  and  _394
REMARK  160  A    between atoms: _393  and  _396
REMARK  161  A    between atoms: _396  and  _397
REMARK  162  A    between atoms: _400  and  _402
REMARK  163  A    between atoms: _402  and  _403
REMARK  164  A    between atoms: _402  and  _405
REMARK  165  A    between atoms: _405  and  _406
REMARK  166  A    between atoms: _412  and  _414
REMARK  167  A    between atoms: _414  and  _415
REMARK  168  A    between atoms: _414  and  _417
REMARK  169  A    between atoms: _417  and  _418
REMARK  170  A    between atoms: _418  and  _419
REMARK  171  A    between atoms: _419  and  _420
REMARK  172  A    between atoms: _420  and  _421
REMARK  173  A    between atoms: _425  and  _427
REMARK  174  A    between atoms: _427  and  _428
REMARK  175  A    between atoms: _427  and  _430
REMARK  176  A    between atoms: _430  and  _431
REMARK  177  A    between atoms: _431  and  _432
REMARK  178  A    between atoms: _434  and  _436
REMARK  179  A    between atoms: _436  and  _437
REMARK  180  A    between atoms: _436  and  _439
REMARK  181  A    between atoms: _439  and  _440
REMARK  182  A    between atoms: _443  and  _445
REMARK  183  A    between atoms: _445  and  _446
REMARK  184  A    between atoms: _448  and  _450
REMARK  185  A    between atoms: _450  and  _451
REMARK  186  A    between atoms: _453  and  _455
REMARK  187  A    between atoms: _455  and  _456
REMARK  188  A    between atoms: _455  and  _458
REMARK  189  A    between atoms: _458  and  _459
REMARK  190  A    between atoms: _462  and  _464
REMARK  191  A    between atoms: _464  and  _465
REMARK  192  A    between atoms: _467  and  _469
REMARK  193  A    between atoms: _469  and  _470
REMARK  194  A    between atoms: _472  and  _474
REMARK  195  A    between atoms: _474  and  _475
REMARK  196  A    between atoms: _474  and  _477
REMARK  197  A    between atoms: _480  and  _482
REMARK  198  A    between atoms: _482  and  _483
REMARK  199  A    between atoms: _482  and  _485
REMARK  200  A    between atoms: _485  and  _486
REMARK  201  A    between atoms: _489  and  _491
REMARK  202  A    between atoms: _491  and  _492
REMARK  203  A    between atoms: _491  and  _494
REMARK  204  A    between atoms: _494  and  _495
REMARK  205  A    between atoms: _499  and  _500
REMARK  206  A    between atoms: _505  and  _507
REMARK  207  A    between atoms: _507  and  _508
REMARK  208  A    between atoms: _511  and  _513
REMARK  209  A    between atoms: _513  and  _514
REMARK  210  A    between atoms: _513  and  _516
REMARK  211  A    between atoms: _516  and  _517
REMARK  212  A    between atoms: _522  and  _524
REMARK  213  A    between atoms: _524  and  _525
REMARK  214  A    between atoms: _524  and  _527
REMARK  215  A    between atoms: _530  and  _532
REMARK  216  A    between atoms: _532  and  _533
REMARK  217  A    between atoms: _532  and  _535
REMARK  218  A    between atoms: _535  and  _536
REMARK  219  A    between atoms: _539  and  _541
REMARK  220  A    between atoms: _541  and  _542
REMARK  221  A    between atoms: _544  and  _546
REMARK  222  A    between atoms: _546  and  _547
REMARK  223  A    between atoms: _546  and  _549
REMARK  224  A    between atoms: _549  and  _550
REMARK  225  A    between atoms: _550  and  _551
REMARK  226  A    between atoms: _551  and  _552
REMARK  227  A    between atoms: _561  and  _563
REMARK  228  A    between atoms: _563  and  _564
REMARK  229  A    between atoms: _563  and  _566
REMARK  230  A    between atoms: _566  and  _567
REMARK                            x       y       z     vdW  Elec       q    Type
REMARK                         _______ _______ _______ _____ _____    ______ ____
ROOT
ATOM      1  O   HOH     1      20.899  -2.094  23.579  0.00  0.00    +0.000 OA
ENDROOT
TORSDOF 0
REMARK  Name = ../refined-set-2016/1sgu/1sgu_pocket.pdb
REMARK  230 active torsions:
REMARK  status: ('A' for Active; 'I' for Inactive)
REMARK    1  A    between atoms: _1  and  _3
REMARK    2  A    between atoms: _3  and  _4
REMARK    3  A    between atoms: _3  and  _6
REMARK    4  A    between atoms: _6  and  _7
REMARK    5  A    between atoms: _7  and  _8
REMARK    6  A    between atoms: _8  and  _9
REMARK    7  A    between atoms: _18  and  _20
REMARK    8  A    between atoms: _20  and  _21
REMARK    9  A    between atoms: _20  and  _23
REMARK   10  A    between atoms: _23  and  _24
REMARK   11  A    between atoms: _27  and  _29
REMARK   12  A    between atoms: _29  and  _30
REMARK   13  A    between atoms: _29  and  _32
REMARK   14  A    between atoms: _32  and  _33
REMARK   15  A    between atoms: _36  and  _38
REMARK   16  A    between atoms: _38  and  _39
REMARK   17  A    between atoms: _38  and  _41
REMARK   18  A    between atoms: _41  and  _42
REMARK   19  A    between atoms: _45  and  _47
REMARK   20  A    between atoms: _47  and  _48
REMARK   21  A    between atoms: _47  and  _50
REMARK   22  A    between atoms: _50  and  _51
REMARK   23  A    between atoms: _54  and  _56
REMARK   24  A    between atoms: _56  and  _57
REMARK   25  A    between atoms: _59  and  _61
REMARK   26  A    between atoms: _61  and  _62
REMARK   27  A    between atoms: _65  and  _67
REMARK   28  A    between atoms: _67  and  _68
REMARK   29  A    between atoms: _67  and  _70
REMARK   30  A    between atoms: _70  and  _71
REMARK   31  A    between atoms: _74  and  _76
REMARK   32  A    between atoms: _76  and  _77
REMARK   33  A    between atoms: _76  and  _79
REMARK   34  A    between atoms: _79  and  _80
REMARK   35  A    between atoms: _83  and  _85
REMARK   36  A    between atoms: _85  and  _86
REMARK   37  A    between atoms: _85  and  _88
REMARK   38  A    between atoms: _88  and  _89
REMARK   39  A    between atoms: _92  and  _94
REMARK   40  A    between atoms: _94  and  _95
REMARK   41  A    between atoms: _94  and  _97
REMARK   42  A    between atoms: _97  and  _98
REMARK   43  A    between atoms: _101  and  _103
REMARK   44  A    between atoms: _103  and  _104
REMARK   45  A    between atoms: _103  and  _106
REMARK   46  A    between atoms: _106  and  _107
REMARK   47  A    between atoms: _113  and  _115
REMARK   48  A    between atoms: _115  and  _116
REMARK   49  A    between atoms: _115  and  _118
REMARK   50  A    between atoms: _118  and  _119
REMARK   51  A    between atoms: _119  and  _120
REMARK   52  A    between atoms: _120  and  _121
REMARK   53  A    between atoms: _121  and  _122
REMARK   54  A    between atoms: _126  and  _128
REMARK   55  A    between atoms: _128  and  _129
REMARK   56  A    between atoms: _128  and  _131
REMARK   57  A    between atoms: _131  and  _132
REMARK   58  A    between atoms: _132  and  _133
REMARK   59  A    between atoms: _135  and  _137
REMARK   60  A    between atoms: _137  and  _138
REMARK   61  A    between atoms: _137  and  _140
REMARK   62  A    between atoms: _140  and  _141
REMARK   63  A    between atoms: _144  and  _146
REMARK   64  A    between atoms: _146  and  _147
REMARK   65  A    between atoms: _149  and  _151
REMARK   66  A    between atoms: _151  and  _152
REMARK   67  A    between atoms: _154  and  _156
REMARK   68  A    between atoms: _156  and  _157
REMARK   69  A    between atoms: _156  and  _159
REMARK   70  A    between atoms: _159  and  _160
REMARK   71  A    between atoms: _163  and  _165
REMARK   72  A    between atoms: _165  and  _166
REMARK   73  A    between atoms: _168  and  _170
REMARK   74  A    between atoms: _170  and  _171
REMARK   75  A    between atoms: _173  and  _175
REMARK   76  A    between atoms: _175  and  _176
REMARK   77  A    between atoms: _175  and  _178
REMARK   78  A    between atoms: _178  and  _179
REMARK   79  A    between atoms: _185  and  _187
REMARK   80  A    between atoms: _187  and  _188
REMARK   81  A    between atoms: _187  and  _190
REMARK   82  A    between atoms: _193  and  _195
REMARK   83  A    between atoms: _195  and  _196
REMARK   84  A    between atoms: _195  and  _198
REMARK   85  A    between atoms: _201  and  _203
REMARK   86  A    between atoms: _203  and  _204
REMARK   87  A    between atoms: _203  and  _206
REMARK   88  A    between atoms: _206  and  _207
REMARK   89  A    between atoms: _211  and  _212
REMARK   90  A    between atoms: _217  and  _219
REMARK   91  A    between atoms: _219  and  _220
REMARK   92  A    between atoms: _219  and  _222
REMARK   93  A    between atoms: _222  and  _223
REMARK   94  A    between atoms: _227  and  _228
REMARK   95  A    between atoms: _233  and  _235
REMARK   96  A    between atoms: _235  and  _236
REMARK   97  A    between atoms: _239  and  _241
REMARK   98  A    between atoms: _241  and  _242
REMARK   99  A    between atoms: _241  and  _244
REMARK  100  A    between atoms: _244  and  _245
REMARK  101  A    between atoms: _250  and  _252
REMARK  102  A    between atoms: _252  and  _253
REMARK  103  A    between atoms: _252  and  _255
REMARK  104  A    between atoms: _258  and  _260
REMARK  105  A    between atoms: _260  and  _261
REMARK  106  A    between atoms: _260  and  _263
REMARK  107  A    between atoms: _263  and  _264
REMARK  108  A    between atoms: _267  and  _269
REMARK  109  A    between atoms: _269  and  _270
REMARK  110  A    between atoms: _272  and  _274
REMARK  111  A    between atoms: _274  and  _275
REMARK  112  A    between atoms: _274  and  _277
REMARK  113  A    between atoms: _277  and  _278
REMARK  114  A    between atoms: _278  and  _279
REMARK  115  A    between atoms: _279  and  _280
REMARK  116  A    between atoms: _289  and  _291
REMARK  117  A    between atoms: _291  and  _292
REMARK  118  A    between atoms: _291  and  _294
REMARK  119  A    between atoms: _294  and  _295
REMARK  120  A    between atoms: _300  and  _302
REMARK  121  A    between atoms: _302  and  _303
REMARK  122  A    between atoms: _302  and  _305
REMARK  123  A    between atoms: _305  and  _306
REMARK  124  A    between atoms: _306  and  _307
REMARK  125  A    between atoms: _307  and  _308
REMARK  126  A    between atoms: _317  and  _319
REMARK  127  A    between atoms: _319  and  _320
REMARK  128  A    between atoms: _319  and  _322
REMARK  129  A    between atoms: _322  and  _323
REMARK  130  A    between atoms: _326  and  _328
REMARK  131  A    between atoms: _328  and  _329
REMARK  132  A    between atoms: _328  and  _331
REMARK  133  A    between atoms: _331  and  _332
REMARK  134  A    between atoms: _335  and  _337
REMARK  135  A    between atoms: _337  and  _338
REMARK  136  A    between atoms: _337  and  _340
REMARK  137  A    between atoms: _340  and  _341
REMARK  138  A    between atoms: _344  and  _346
REMARK  139  A    between atoms: _346  and  _347
REMARK  140  A    between atoms: _346  and  _349
REMARK  141  A    between atoms: _349  and  _350
REMARK  142  A    between atoms: _353  and  _355
REMARK  143  A    between atoms: _355  and  _356
REMARK  144  A    between atoms: _358  and  _360
REMARK  145  A    between atoms: _360  and  _361
REMARK  146  A    between atoms: _364  and  _366
REMARK  147  A    between atoms: _366  and  _367
REMARK  148  A    between atoms: _366  and  _369
REMARK  149  A    between atoms: _369  and  _370
REMARK  150  A    between atoms: _373  and  _375
REMARK  151  A    between atoms: _375  and  _376
REMARK  152  A    between atoms: _375  and  _378
REMARK  153  A    between atoms: _378  and  _379
REMARK  154  A    between atoms: _382  and  _384
REMARK  155  A    between atoms: _384  and  _385
REMARK  156  A    between atoms: _384  and  _387
REMARK  157  A    between atoms: _387  and  _388
REMARK  158  A    between atoms: _391  and  _393
REMARK  159  A    between atoms: _393  and  _394
REMARK  160  A    between atoms: _393  and  _396
REMARK  161  A    between atoms: _396  and  _397
REMARK  162  A    between atoms: _400  and  _402
REMARK  163  A    between atoms: _402  and  _403
REMARK  164  A    between atoms: _402  and  _405
REMARK  165  A    between atoms: _405  and  _406
REMARK  166  A    between atoms: _412  and  _414
REMARK  167  A    between atoms: _414  and  _415
REMARK  168  A    between atoms: _414  and  _417
REMARK  169  A    between atoms: _417  and  _418
REMARK  170  A    between atoms: _418  and  _419
REMARK  171  A    between atoms: _419  and  _420
REMARK  172  A    between atoms: _420  and  _421
REMARK  173  A    between atoms: _425  and  _427
REMARK  174  A    between atoms: _427  and  _428
REMARK  175  A    between atoms: _427  and  _430
REMARK  176  A    between atoms: _430  and  _431
REMARK  177  A    between atoms: _431  and  _432
REMARK  178  A    between atoms: _434  and  _436
REMARK  179  A    between atoms: _436  and  _437
REMARK  180  A    between atoms: _436  and  _439
REMARK  181  A    between atoms: _439  and  _440
REMARK  182  A    between atoms: _443  and  _445
REMARK  183  A    between atoms: _445  and  _446
REMARK  184  A    between atoms: _448  and  _450
REMARK  185  A    between atoms: _450  and  _451
REMARK  186  A    between atoms: _453  and  _455
REMARK  187  A    between atoms: _455  and  _456
REMARK  188  A    between atoms: _455  and  _458
REMARK  189  A    between atoms: _458  and  _459
REMARK  190  A    between atoms: _462  and  _464
REMARK  191  A    between atoms: _464  and  _465
REMARK  192  A    between atoms: _467  and  _469
REMARK  193  A    between atoms: _469  and  _470
REMARK  194  A    between atoms: _472  and  _474
REMARK  195  A    between atoms: _474  and  _475
REMARK  196  A    between atoms: _474  and  _477
REMARK  197  A    between atoms: _480  and  _482
REMARK  198  A    between atoms: _482  and  _483
REMARK  199  A    between atoms: _482  and  _485
REMARK  200  A    between atoms: _485  and  _486
REMARK  201  A    between atoms: _489  and  _491
REMARK  202  A    between atoms: _491  and  _492
REMARK  203  A    between atoms: _491  and  _494
REMARK  204  A    between atoms: _494  and  _495
REMARK  205  A    between atoms: _499  and  _500
REMARK  206  A    between atoms: _505  and  _507
REMARK  207  A    between atoms: _507  and  _508
REMARK  208  A    between atoms: _511  and  _513
REMARK  209  A    between atoms: _513  and  _514
REMARK  210  A    between atoms: _513  and  _516
REMARK  211  A    between atoms: _516  and  _517
REMARK  212  A    between atoms: _522  and  _524
REMARK  213  A    between atoms: _524  and  _525
REMARK  214  A    between atoms: _524  and  _527
REMARK  215  A    between atoms: _530  and  _532
REMARK  216  A    between atoms: _532  and  _533
REMARK  217  A    between atoms: _532  and  _535
REMARK  218  A    between atoms: _535  and  _536
REMARK  219  A    between atoms: _539  and  _541
REMARK  220  A    between atoms: _541  and  _542
REMARK  221  A    between atoms: _544  and  _546
REMARK  222  A    between atoms: _546  and  _547
REMARK  223  A    between atoms: _546  and  _549
REMARK  224  A    between atoms: _549  and  _550
REMARK  225  A    between atoms: _550  and  _551
REMARK  226  A    between atoms: _551  and  _552
REMARK  227  A    between atoms: _561  and  _563
REMARK  228  A    between atoms: _563  and  _564
REMARK  229  A    between atoms: _563  and  _566
REMARK  230  A    between atoms: _566  and  _567
REMARK                            x       y       z     vdW  Elec       q    Type
REMARK                         _______ _______ _______ _____ _____    ______ ____
ROOT
ATOM      1  O   HOH     1      21.733   0.510  24.725  0.00  0.00    +0.000 OA
ENDROOT
TORSDOF 0
REMARK  Name = ../refined-set-2016/1sgu/1sgu_pocket.pdb
REMARK  230 active torsions:
REMARK  status: ('A' for Active; 'I' for Inactive)
REMARK    1  A    between atoms: _1  and  _3
REMARK    2  A    between atoms: _3  and  _4
REMARK    3  A    between atoms: _3  and  _6
REMARK    4  A    between atoms: _6  and  _7
REMARK    5  A    between atoms: _7  and  _8
REMARK    6  A    between atoms: _8  and  _9
REMARK    7  A    between atoms: _18  and  _20
REMARK    8  A    between atoms: _20  and  _21
REMARK    9  A    between atoms: _20  and  _23
REMARK   10  A    between atoms: _23  and  _24
REMARK   11  A    between atoms: _27  and  _29
REMARK   12  A    between atoms: _29  and  _30
REMARK   13  A    between atoms: _29  and  _32
REMARK   14  A    between atoms: _32  and  _33
REMARK   15  A    between atoms: _36  and  _38
REMARK   16  A    between atoms: _38  and  _39
REMARK   17  A    between atoms: _38  and  _41
REMARK   18  A    between atoms: _41  and  _42
REMARK   19  A    between atoms: _45  and  _47
REMARK   20  A    between atoms: _47  and  _48
REMARK   21  A    between atoms: _47  and  _50
REMARK   22  A    between atoms: _50  and  _51
REMARK   23  A    between atoms: _54  and  _56
REMARK   24  A    between atoms: _56  and  _57
REMARK   25  A    between atoms: _59  and  _61
REMARK   26  A    between atoms: _61  and  _62
REMARK   27  A    between atoms: _65  and  _67
REMARK   28  A    between atoms: _67  and  _68
REMARK   29  A    between atoms: _67  and  _70
REMARK   30  A    between atoms: _70  and  _71
REMARK   31  A    between atoms: _74  and  _76
REMARK   32  A    between atoms: _76  and  _77
REMARK   33  A    between atoms: _76  and  _79
REMARK   34  A    between atoms: _79  and  _80
REMARK   35  A    between atoms: _83  and  _85
REMARK   36  A    between atoms: _85  and  _86
REMARK   37  A    between atoms: _85  and  _88
REMARK   38  A    between atoms: _88  and  _89
REMARK   39  A    between atoms: _92  and  _94
REMARK   40  A    between atoms: _94  and  _95
REMARK   41  A    between atoms: _94  and  _97
REMARK   42  A    between atoms: _97  and  _98
REMARK   43  A    between atoms: _101  and  _103
REMARK   44  A    between atoms: _103  and  _104
REMARK   45  A    between atoms: _103  and  _106
REMARK   46  A    between atoms: _106  and  _107
REMARK   47  A    between atoms: _113  and  _115
REMARK   48  A    between atoms: _115  and  _116
REMARK   49  A    between atoms: _115  and  _118
REMARK   50  A    between atoms: _118  and  _119
REMARK   51  A    between atoms: _119  and  _120
REMARK   52  A    between atoms: _120  and  _121
REMARK   53  A    between atoms: _121  and  _122
REMARK   54  A    between atoms: _126  and  _128
REMARK   55  A    between atoms: _128  and  _129
REMARK   56  A    between atoms: _128  and  _131
REMARK   57  A    between atoms: _131  and  _132
REMARK   58  A    between atoms: _132  and  _133
REMARK   59  A    between atoms: _135  and  _137
REMARK   60  A    between atoms: _137  and  _138
REMARK   61  A    between atoms: _137  and  _140
REMARK   62  A    between atoms: _140  and  _141
REMARK   63  A    between atoms: _144  and  _146
REMARK   64  A    between atoms: _146  and  _147
REMARK   65  A    between atoms: _149  and  _151
REMARK   66  A    between atoms: _151  and  _152
REMARK   67  A    between atoms: _154  and  _156
REMARK   68  A    between atoms: _156  and  _157
REMARK   69  A    between atoms: _156  and  _159
REMARK   70  A    between atoms: _159  and  _160
REMARK   71  A    between atoms: _163  and  _165
REMARK   72  A    between atoms: _165  and  _166
REMARK   73  A    between atoms: _168  and  _170
REMARK   74  A    between atoms: _170  and  _171
REMARK   75  A    between atoms: _173  and  _175
REMARK   76  A    between atoms: _175  and  _176
REMARK   77  A    between atoms: _175  and  _178
REMARK   78  A    between atoms: _178  and  _179
REMARK   79  A    between atoms: _185  and  _187
REMARK   80  A    between atoms: _187  and  _188
REMARK   81  A    between atoms: _187  and  _190
REMARK   82  A    between atoms: _193  and  _195
REMARK   83  A    between atoms: _195  and  _196
REMARK   84  A    between atoms: _195  and  _198
REMARK   85  A    between atoms: _201  and  _203
REMARK   86  A    between atoms: _203  and  _204
REMARK   87  A    between atoms: _203  and  _206
REMARK   88  A    between atoms: _206  and  _207
REMARK   89  A    between atoms: _211  and  _212
REMARK   90  A    between atoms: _217  and  _219
REMARK   91  A    between atoms: _219  and  _220
REMARK   92  A    between atoms: _219  and  _222
REMARK   93  A    between atoms: _222  and  _223
REMARK   94  A    between atoms: _227  and  _228
REMARK   95  A    between atoms: _233  and  _235
REMARK   96  A    between atoms: _235  and  _236
REMARK   97  A    between atoms: _239  and  _241
REMARK   98  A    between atoms: _241  and  _242
REMARK   99  A    between atoms: _241  and  _244
REMARK  100  A    between atoms: _244  and  _245
REMARK  101  A    between atoms: _250  and  _252
REMARK  102  A    between atoms: _252  and  _253
REMARK  103  A    between atoms: _252  and  _255
REMARK  104  A    between atoms: _258  and  _260
REMARK  105  A    between atoms: _260  and  _261
REMARK  106  A    between atoms: _260  and  _263
REMARK  107  A    between atoms: _263  and  _264
REMARK  108  A    between atoms: _267  and  _269
REMARK  109  A    between atoms: _269  and  _270
REMARK  110  A    between atoms: _272  and  _274
REMARK  111  A    between atoms: _274  and  _275
REMARK  112  A    between atoms: _274  and  _277
REMARK  113  A    between atoms: _277  and  _278
REMARK  114  A    between atoms: _278  and  _279
REMARK  115  A    between atoms: _279  and  _280
REMARK  116  A    between atoms: _289  and  _291
REMARK  117  A    between atoms: _291  and  _292
REMARK  118  A    between atoms: _291  and  _294
REMARK  119  A    between atoms: _294  and  _295
REMARK  120  A    between atoms: _300  and  _302
REMARK  121  A    between atoms: _302  and  _303
REMARK  122  A    between atoms: _302  and  _305
REMARK  123  A    between atoms: _305  and  _306
REMARK  124  A    between atoms: _306  and  _307
REMARK  125  A    between atoms: _307  and  _308
REMARK  126  A    between atoms: _317  and  _319
REMARK  127  A    between atoms: _319  and  _320
REMARK  128  A    between atoms: _319  and  _322
REMARK  129  A    between atoms: _322  and  _323
REMARK  130  A    between atoms: _326  and  _328
REMARK  131  A    between atoms: _328  and  _329
REMARK  132  A    between atoms: _328  and  _331
REMARK  133  A    between atoms: _331  and  _332
REMARK  134  A    between atoms: _335  and  _337
REMARK  135  A    between atoms: _337  and  _338
REMARK  136  A    between atoms: _337  and  _340
REMARK  137  A    between atoms: _340  and  _341
REMARK  138  A    between atoms: _344  and  _346
REMARK  139  A    between atoms: _346  and  _347
REMARK  140  A    between atoms: _346  and  _349
REMARK  141  A    between atoms: _349  and  _350
REMARK  142  A    between atoms: _353  and  _355
REMARK  143  A    between atoms: _355  and  _356
REMARK  144  A    between atoms: _358  and  _360
REMARK  145  A    between atoms: _360  and  _361
REMARK  146  A    between atoms: _364  and  _366
REMARK  147  A    between atoms: _366  and  _367
REMARK  148  A    between atoms: _366  and  _369
REMARK  149  A    between atoms: _369  and  _370
REMARK  150  A    between atoms: _373  and  _375
REMARK  151  A    between atoms: _375  and  _376
REMARK  152  A    between atoms: _375  and  _378
REMARK  153  A    between atoms: _378  and  _379
REMARK  154  A    between atoms: _382  and  _384
REMARK  155  A    between atoms: _384  and  _385
REMARK  156  A    between atoms: _384  and  _387
REMARK  157  A    between atoms: _387  and  _388
REMARK  158  A    between atoms: _391  and  _393
REMARK  159  A    between atoms: _393  and  _394
REMARK  160  A    between atoms: _393  and  _396
REMARK  161  A    between atoms: _396  and  _397
REMARK  162  A    between atoms: _400  and  _402
REMARK  163  A    between atoms: _402  and  _403
REMARK  164  A    between atoms: _402  and  _405
REMARK  165  A    between atoms: _405  and  _406
REMARK  166  A    between atoms: _412  and  _414
REMARK  167  A    between atoms: _414  and  _415
REMARK  168  A    between atoms: _414  and  _417
REMARK  169  A    between atoms: _417  and  _418
REMARK  170  A    between atoms: _418  and  _419
REMARK  171  A    between atoms: _419  and  _420
REMARK  172  A    between atoms: _420  and  _421
REMARK  173  A    between atoms: _425  and  _427
REMARK  174  A    between atoms: _427  and  _428
REMARK  175  A    between atoms: _427  and  _430
REMARK  176  A    between atoms: _430  and  _431
REMARK  177  A    between atoms: _431  and  _432
REMARK  178  A    between atoms: _434  and  _436
REMARK  179  A    between atoms: _436  and  _437
REMARK  180  A    between atoms: _436  and  _439
REMARK  181  A    between atoms: _439  and  _440
REMARK  182  A    between atoms: _443  and  _445
REMARK  183  A    between atoms: _445  and  _446
REMARK  184  A    between atoms: _448  and  _450
REMARK  185  A    between atoms: _450  and  _451
REMARK  186  A    between atoms: _453  and  _455
REMARK  187  A    between atoms: _455  and  _456
REMARK  188  A    between atoms: _455  and  _458
REMARK  189  A    between atoms: _458  and  _459
REMARK  190  A    between atoms: _462  and  _464
REMARK  191  A    between atoms: _464  and  _465
REMARK  192  A    between atoms: _467  and  _469
REMARK  193  A    between atoms: _469  and  _470
REMARK  194  A    between atoms: _472  and  _474
REMARK  195  A    between atoms: _474  and  _475
REMARK  196  A    between atoms: _474  and  _477
REMARK  197  A    between atoms: _480  and  _482
REMARK  198  A    between atoms: _482  and  _483
REMARK  199  A    between atoms: _482  and  _485
REMARK  200  A    between atoms: _485  and  _486
REMARK  201  A    between atoms: _489  and  _491
REMARK  202  A    between atoms: _491  and  _492
REMARK  203  A    between atoms: _491  and  _494
REMARK  204  A    between atoms: _494  and  _495
REMARK  205  A    between atoms: _499  and  _500
REMARK  206  A    between atoms: _505  and  _507
REMARK  207  A    between atoms: _507  and  _508
REMARK  208  A    between atoms: _511  and  _513
REMARK  209  A    between atoms: _513  and  _514
REMARK  210  A    between atoms: _513  and  _516
REMARK  211  A    between atoms: _516  and  _517
REMARK  212  A    between atoms: _522  and  _524
REMARK  213  A    between atoms: _524  and  _525
REMARK  214  A    between atoms: _524  and  _527
REMARK  215  A    between atoms: _530  and  _532
REMARK  216  A    between atoms: _532  and  _533
REMARK  217  A    between atoms: _532  and  _535
REMARK  218  A    between atoms: _535  and  _536
REMARK  219  A    between atoms: _539  and  _541
REMARK  220  A    between atoms: _541  and  _542
REMARK  221  A    between atoms: _544  and  _546
REMARK  222  A    between atoms: _546  and  _547
REMARK  223  A    between atoms: _546  and  _549
REMARK  224  A    between atoms: _549  and  _550
REMARK  225  A    between atoms: _550  and  _551
REMARK  226  A    between atoms: _551  and  _552
REMARK  227  A    between atoms: _561  and  _563
REMARK  228  A    between atoms: _563  and  _564
REMARK  229  A    between atoms: _563  and  _566
REMARK  230  A    between atoms: _566  and  _567
REMARK                            x       y       z     vdW  Elec       q    Type
REMARK                         _______ _______ _______ _____ _____    ______ ____
ROOT
ATOM      1  O   HOH     1      20.133 -12.144  12.370  0.00  0.00    +0.000 OA
ENDROOT
TORSDOF 0
REMARK  Name = ../refined-set-2016/1sgu/1sgu_pocket.pdb
REMARK  230 active torsions:
REMARK  status: ('A' for Active; 'I' for Inactive)
REMARK    1  A    between atoms: _1  and  _3
REMARK    2  A    between atoms: _3  and  _4
REMARK    3  A    between atoms: _3  and  _6
REMARK    4  A    between atoms: _6  and  _7
REMARK    5  A    between atoms: _7  and  _8
REMARK    6  A    between atoms: _8  and  _9
REMARK    7  A    between atoms: _18  and  _20
REMARK    8  A    between atoms: _20  and  _21
REMARK    9  A    between atoms: _20  and  _23
REMARK   10  A    between atoms: _23  and  _24
REMARK   11  A    between atoms: _27  and  _29
REMARK   12  A    between atoms: _29  and  _30
REMARK   13  A    between atoms: _29  and  _32
REMARK   14  A    between atoms: _32  and  _33
REMARK   15  A    between atoms: _36  and  _38
REMARK   16  A    between atoms: _38  and  _39
REMARK   17  A    between atoms: _38  and  _41
REMARK   18  A    between atoms: _41  and  _42
REMARK   19  A    between atoms: _45  and  _47
REMARK   20  A    between atoms: _47  and  _48
REMARK   21  A    between atoms: _47  and  _50
REMARK   22  A    between atoms: _50  and  _51
REMARK   23  A    between atoms: _54  and  _56
REMARK   24  A    between atoms: _56  and  _57
REMARK   25  A    between atoms: _59  and  _61
REMARK   26  A    between atoms: _61  and  _62
REMARK   27  A    between atoms: _65  and  _67
REMARK   28  A    between atoms: _67  and  _68
REMARK   29  A    between atoms: _67  and  _70
REMARK   30  A    between atoms: _70  and  _71
REMARK   31  A    between atoms: _74  and  _76
REMARK   32  A    between atoms: _76  and  _77
REMARK   33  A    between atoms: _76  and  _79
REMARK   34  A    between atoms: _79  and  _80
REMARK   35  A    between atoms: _83  and  _85
REMARK   36  A    between atoms: _85  and  _86
REMARK   37  A    between atoms: _85  and  _88
REMARK   38  A    between atoms: _88  and  _89
REMARK   39  A    between atoms: _92  and  _94
REMARK   40  A    between atoms: _94  and  _95
REMARK   41  A    between atoms: _94  and  _97
REMARK   42  A    between atoms: _97  and  _98
REMARK   43  A    between atoms: _101  and  _103
REMARK   44  A    between atoms: _103  and  _104
REMARK   45  A    between atoms: _103  and  _106
REMARK   46  A    between atoms: _106  and  _107
REMARK   47  A    between atoms: _113  and  _115
REMARK   48  A    between atoms: _115  and  _116
REMARK   49  A    between atoms: _115  and  _118
REMARK   50  A    between atoms: _118  and  _119
REMARK   51  A    between atoms: _119  and  _120
REMARK   52  A    between atoms: _120  and  _121
REMARK   53  A    between atoms: _121  and  _122
REMARK   54  A    between atoms: _126  and  _128
REMARK   55  A    between atoms: _128  and  _129
REMARK   56  A    between atoms: _128  and  _131
REMARK   57  A    between atoms: _131  and  _132
REMARK   58  A    between atoms: _132  and  _133
REMARK   59  A    between atoms: _135  and  _137
REMARK   60  A    between atoms: _137  and  _138
REMARK   61  A    between atoms: _137  and  _140
REMARK   62  A    between atoms: _140  and  _141
REMARK   63  A    between atoms: _144  and  _146
REMARK   64  A    between atoms: _146  and  _147
REMARK   65  A    between atoms: _149  and  _151
REMARK   66  A    between atoms: _151  and  _152
REMARK   67  A    between atoms: _154  and  _156
REMARK   68  A    between atoms: _156  and  _157
REMARK   69  A    between atoms: _156  and  _159
REMARK   70  A    between atoms: _159  and  _160
REMARK   71  A    between atoms: _163  and  _165
REMARK   72  A    between atoms: _165  and  _166
REMARK   73  A    between atoms: _168  and  _170
REMARK   74  A    between atoms: _170  and  _171
REMARK   75  A    between atoms: _173  and  _175
REMARK   76  A    between atoms: _175  and  _176
REMARK   77  A    between atoms: _175  and  _178
REMARK   78  A    between atoms: _178  and  _179
REMARK   79  A    between atoms: _185  and  _187
REMARK   80  A    between atoms: _187  and  _188
REMARK   81  A    between atoms: _187  and  _190
REMARK   82  A    between atoms: _193  and  _195
REMARK   83  A    between atoms: _195  and  _196
REMARK   84  A    between atoms: _195  and  _198
REMARK   85  A    between atoms: _201  and  _203
REMARK   86  A    between atoms: _203  and  _204
REMARK   87  A    between atoms: _203  and  _206
REMARK   88  A    between atoms: _206  and  _207
REMARK   89  A    between atoms: _211  and  _212
REMARK   90  A    between atoms: _217  and  _219
REMARK   91  A    between atoms: _219  and  _220
REMARK   92  A    between atoms: _219  and  _222
REMARK   93  A    between atoms: _222  and  _223
REMARK   94  A    between atoms: _227  and  _228
REMARK   95  A    between atoms: _233  and  _235
REMARK   96  A    between atoms: _235  and  _236
REMARK   97  A    between atoms: _239  and  _241
REMARK   98  A    between atoms: _241  and  _242
REMARK   99  A    between atoms: _241  and  _244
REMARK  100  A    between atoms: _244  and  _245
REMARK  101  A    between atoms: _250  and  _252
REMARK  102  A    between atoms: _252  and  _253
REMARK  103  A    between atoms: _252  and  _255
REMARK  104  A    between atoms: _258  and  _260
REMARK  105  A    between atoms: _260  and  _261
REMARK  106  A    between atoms: _260  and  _263
REMARK  107  A    between atoms: _263  and  _264
REMARK  108  A    between atoms: _267  and  _269
REMARK  109  A    between atoms: _269  and  _270
REMARK  110  A    between atoms: _272  and  _274
REMARK  111  A    between atoms: _274  and  _275
REMARK  112  A    between atoms: _274  and  _277
REMARK  113  A    between atoms: _277  and  _278
REMARK  114  A    between atoms: _278  and  _279
REMARK  115  A    between atoms: _279  and  _280
REMARK  116  A    between atoms: _289  and  _291
REMARK  117  A    between atoms: _291  and  _292
REMARK  118  A    between atoms: _291  and  _294
REMARK  119  A    between atoms: _294  and  _295
REMARK  120  A    between atoms: _300  and  _302
REMARK  121  A    between atoms: _302  and  _303
REMARK  122  A    between atoms: _302  and  _305
REMARK  123  A    between atoms: _305  and  _306
REMARK  124  A    between atoms: _306  and  _307
REMARK  125  A    between atoms: _307  and  _308
REMARK  126  A    between atoms: _317  and  _319
REMARK  127  A    between atoms: _319  and  _320
REMARK  128  A    between atoms: _319  and  _322
REMARK  129  A    between atoms: _322  and  _323
REMARK  130  A    between atoms: _326  and  _328
REMARK  131  A    between atoms: _328  and  _329
REMARK  132  A    between atoms: _328  and  _331
REMARK  133  A    between atoms: _331  and  _332
REMARK  134  A    between atoms: _335  and  _337
REMARK  135  A    between atoms: _337  and  _338
REMARK  136  A    between atoms: _337  and  _340
REMARK  137  A    between atoms: _340  and  _341
REMARK  138  A    between atoms: _344  and  _346
REMARK  139  A    between atoms: _346  and  _347
REMARK  140  A    between atoms: _346  and  _349
REMARK  141  A    between atoms: _349  and  _350
REMARK  142  A    between atoms: _353  and  _355
REMARK  143  A    between atoms: _355  and  _356
REMARK  144  A    between atoms: _358  and  _360
REMARK  145  A    between atoms: _360  and  _361
REMARK  146  A    between atoms: _364  and  _366
REMARK  147  A    between atoms: _366  and  _367
REMARK  148  A    between atoms: _366  and  _369
REMARK  149  A    between atoms: _369  and  _370
REMARK  150  A    between atoms: _373  and  _375
REMARK  151  A    between atoms: _375  and  _376
REMARK  152  A    between atoms: _375  and  _378
REMARK  153  A    between atoms: _378  and  _379
REMARK  154  A    between atoms: _382  and  _384
REMARK  155  A    between atoms: _384  and  _385
REMARK  156  A    between atoms: _384  and  _387
REMARK  157  A    between atoms: _387  and  _388
REMARK  158  A    between atoms: _391  and  _393
REMARK  159  A    between atoms: _393  and  _394
REMARK  160  A    between atoms: _393  and  _396
REMARK  161  A    between atoms: _396  and  _397
REMARK  162  A    between atoms: _400  and  _402
REMARK  163  A    between atoms: _402  and  _403
REMARK  164  A    between atoms: _402  and  _405
REMARK  165  A    between atoms: _405  and  _406
REMARK  166  A    between atoms: _412  and  _414
REMARK  167  A    between atoms: _414  and  _415
REMARK  168  A    between atoms: _414  and  _417
REMARK  169  A    between atoms: _417  and  _418
REMARK  170  A    between atoms: _418  and  _419
REMARK  171  A    between atoms: _419  and  _420
REMARK  172  A    between atoms: _420  and  _421
REMARK  173  A    between atoms: _425  and  _427
REMARK  174  A    between atoms: _427  and  _428
REMARK  175  A    between atoms: _427  and  _430
REMARK  176  A    between atoms: _430  and  _431
REMARK  177  A    between atoms: _431  and  _432
REMARK  178  A    between atoms: _434  and  _436
REMARK  179  A    between atoms: _436  and  _437
REMARK  180  A    between atoms: _436  and  _439
REMARK  181  A    between atoms: _439  and  _440
REMARK  182  A    between atoms: _443  and  _445
REMARK  183  A    between atoms: _445  and  _446
REMARK  184  A    between atoms: _448  and  _450
REMARK  185  A    between atoms: _450  and  _451
REMARK  186  A    between atoms: _453  and  _455
REMARK  187  A    between atoms: _455  and  _456
REMARK  188  A    between atoms: _455  and  _458
REMARK  189  A    between atoms: _458  and  _459
REMARK  190  A    between atoms: _462  and  _464
REMARK  191  A    between atoms: _464  and  _465
REMARK  192  A    between atoms: _467  and  _469
REMARK  193  A    between atoms: _469  and  _470
REMARK  194  A    between atoms: _472  and  _474
REMARK  195  A    between atoms: _474  and  _475
REMARK  196  A    between atoms: _474  and  _477
REMARK  197  A    between atoms: _480  and  _482
REMARK  198  A    between atoms: _482  and  _483
REMARK  199  A    between atoms: _482  and  _485
REMARK  200  A    between atoms: _485  and  _486
REMARK  201  A    between atoms: _489  and  _491
REMARK  202  A    between atoms: _491  and  _492
REMARK  203  A    between atoms: _491  and  _494
REMARK  204  A    between atoms: _494  and  _495
REMARK  205  A    between atoms: _499  and  _500
REMARK  206  A    between atoms: _505  and  _507
REMARK  207  A    between atoms: _507  and  _508
REMARK  208  A    between atoms: _511  and  _513
REMARK  209  A    between atoms: _513  and  _514
REMARK  210  A    between atoms: _513  and  _516
REMARK  211  A    between atoms: _516  and  _517
REMARK  212  A    between atoms: _522  and  _524
REMARK  213  A    between atoms: _524  and  _525
REMARK  214  A    between atoms: _524  and  _527
REMARK  215  A    between atoms: _530  and  _532
REMARK  216  A    between atoms: _532  and  _533
REMARK  217  A    between atoms: _532  and  _535
REMARK  218  A    between atoms: _535  and  _536
REMARK  219  A    between atoms: _539  and  _541
REMARK  220  A    between atoms: _541  and  _542
REMARK  221  A    between atoms: _544  and  _546
REMARK  222  A    between atoms: _546  and  _547
REMARK  223  A    between atoms: _546  and  _549
REMARK  224  A    between atoms: _549  and  _550
REMARK  225  A    between atoms: _550  and  _551
REMARK  226  A    between atoms: _551  and  _552
REMARK  227  A    between atoms: _561  and  _563
REMARK  228  A    between atoms: _563  and  _564
REMARK  229  A    between atoms: _563  and  _566
REMARK  230  A    between atoms: _566  and  _567
REMARK                            x       y       z     vdW  Elec       q    Type
REMARK                         _______ _______ _______ _____ _____    ______ ____
ROOT
ATOM      1  O   HOH     1      19.693   3.545  16.059  0.00  0.00    +0.000 OA
ENDROOT
TORSDOF 0
REMARK  Name = ../refined-set-2016/1sgu/1sgu_pocket.pdb
REMARK  230 active torsions:
REMARK  status: ('A' for Active; 'I' for Inactive)
REMARK    1  A    between atoms: _1  and  _3
REMARK    2  A    between atoms: _3  and  _4
REMARK    3  A    between atoms: _3  and  _6
REMARK    4  A    between atoms: _6  and  _7
REMARK    5  A    between atoms: _7  and  _8
REMARK    6  A    between atoms: _8  and  _9
REMARK    7  A    between atoms: _18  and  _20
REMARK    8  A    between atoms: _20  and  _21
REMARK    9  A    between atoms: _20  and  _23
REMARK   10  A    between atoms: _23  and  _24
REMARK   11  A    between atoms: _27  and  _29
REMARK   12  A    between atoms: _29  and  _30
REMARK   13  A    between atoms: _29  and  _32
REMARK   14  A    between atoms: _32  and  _33
REMARK   15  A    between atoms: _36  and  _38
REMARK   16  A    between atoms: _38  and  _39
REMARK   17  A    between atoms: _38  and  _41
REMARK   18  A    between atoms: _41  and  _42
REMARK   19  A    between atoms: _45  and  _47
REMARK   20  A    between atoms: _47  and  _48
REMARK   21  A    between atoms: _47  and  _50
REMARK   22  A    between atoms: _50  and  _51
REMARK   23  A    between atoms: _54  and  _56
REMARK   24  A    between atoms: _56  and  _57
REMARK   25  A    between atoms: _59  and  _61
REMARK   26  A    between atoms: _61  and  _62
REMARK   27  A    between atoms: _65  and  _67
REMARK   28  A    between atoms: _67  and  _68
REMARK   29  A    between atoms: _67  and  _70
REMARK   30  A    between atoms: _70  and  _71
REMARK   31  A    between atoms: _74  and  _76
REMARK   32  A    between atoms: _76  and  _77
REMARK   33  A    between atoms: _76  and  _79
REMARK   34  A    between atoms: _79  and  _80
REMARK   35  A    between atoms: _83  and  _85
REMARK   36  A    between atoms: _85  and  _86
REMARK   37  A    between atoms: _85  and  _88
REMARK   38  A    between atoms: _88  and  _89
REMARK   39  A    between atoms: _92  and  _94
REMARK   40  A    between atoms: _94  and  _95
REMARK   41  A    between atoms: _94  and  _97
REMARK   42  A    between atoms: _97  and  _98
REMARK   43  A    between atoms: _101  and  _103
REMARK   44  A    between atoms: _103  and  _104
REMARK   45  A    between atoms: _103  and  _106
REMARK   46  A    between atoms: _106  and  _107
REMARK   47  A    between atoms: _113  and  _115
REMARK   48  A    between atoms: _115  and  _116
REMARK   49  A    between atoms: _115  and  _118
REMARK   50  A    between atoms: _118  and  _119
REMARK   51  A    between atoms: _119  and  _120
REMARK   52  A    between atoms: _120  and  _121
REMARK   53  A    between atoms: _121  and  _122
REMARK   54  A    between atoms: _126  and  _128
REMARK   55  A    between atoms: _128  and  _129
REMARK   56  A    between atoms: _128  and  _131
REMARK   57  A    between atoms: _131  and  _132
REMARK   58  A    between atoms: _132  and  _133
REMARK   59  A    between atoms: _135  and  _137
REMARK   60  A    between atoms: _137  and  _138
REMARK   61  A    between atoms: _137  and  _140
REMARK   62  A    between atoms: _140  and  _141
REMARK   63  A    between atoms: _144  and  _146
REMARK   64  A    between atoms: _146  and  _147
REMARK   65  A    between atoms: _149  and  _151
REMARK   66  A    between atoms: _151  and  _152
REMARK   67  A    between atoms: _154  and  _156
REMARK   68  A    between atoms: _156  and  _157
REMARK   69  A    between atoms: _156  and  _159
REMARK   70  A    between atoms: _159  and  _160
REMARK   71  A    between atoms: _163  and  _165
REMARK   72  A    between atoms: _165  and  _166
REMARK   73  A    between atoms: _168  and  _170
REMARK   74  A    between atoms: _170  and  _171
REMARK   75  A    between atoms: _173  and  _175
REMARK   76  A    between atoms: _175  and  _176
REMARK   77  A    between atoms: _175  and  _178
REMARK   78  A    between atoms: _178  and  _179
REMARK   79  A    between atoms: _185  and  _187
REMARK   80  A    between atoms: _187  and  _188
REMARK   81  A    between atoms: _187  and  _190
REMARK   82  A    between atoms: _193  and  _195
REMARK   83  A    between atoms: _195  and  _196
REMARK   84  A    between atoms: _195  and  _198
REMARK   85  A    between atoms: _201  and  _203
REMARK   86  A    between atoms: _203  and  _204
REMARK   87  A    between atoms: _203  and  _206
REMARK   88  A    between atoms: _206  and  _207
REMARK   89  A    between atoms: _211  and  _212
REMARK   90  A    between atoms: _217  and  _219
REMARK   91  A    between atoms: _219  and  _220
REMARK   92  A    between atoms: _219  and  _222
REMARK   93  A    between atoms: _222  and  _223
REMARK   94  A    between atoms: _227  and  _228
REMARK   95  A    between atoms: _233  and  _235
REMARK   96  A    between atoms: _235  and  _236
REMARK   97  A    between atoms: _239  and  _241
REMARK   98  A    between atoms: _241  and  _242
REMARK   99  A    between atoms: _241  and  _244
REMARK  100  A    between atoms: _244  and  _245
REMARK  101  A    between atoms: _250  and  _252
REMARK  102  A    between atoms: _252  and  _253
REMARK  103  A    between atoms: _252  and  _255
REMARK  104  A    between atoms: _258  and  _260
REMARK  105  A    between atoms: _260  and  _261
REMARK  106  A    between atoms: _260  and  _263
REMARK  107  A    between atoms: _263  and  _264
REMARK  108  A    between atoms: _267  and  _269
REMARK  109  A    between atoms: _269  and  _270
REMARK  110  A    between atoms: _272  and  _274
REMARK  111  A    between atoms: _274  and  _275
REMARK  112  A    between atoms: _274  and  _277
REMARK  113  A    between atoms: _277  and  _278
REMARK  114  A    between atoms: _278  and  _279
REMARK  115  A    between atoms: _279  and  _280
REMARK  116  A    between atoms: _289  and  _291
REMARK  117  A    between atoms: _291  and  _292
REMARK  118  A    between atoms: _291  and  _294
REMARK  119  A    between atoms: _294  and  _295
REMARK  120  A    between atoms: _300  and  _302
REMARK  121  A    between atoms: _302  and  _303
REMARK  122  A    between atoms: _302  and  _305
REMARK  123  A    between atoms: _305  and  _306
REMARK  124  A    between atoms: _306  and  _307
REMARK  125  A    between atoms: _307  and  _308
REMARK  126  A    between atoms: _317  and  _319
REMARK  127  A    between atoms: _319  and  _320
REMARK  128  A    between atoms: _319  and  _322
REMARK  129  A    between atoms: _322  and  _323
REMARK  130  A    between atoms: _326  and  _328
REMARK  131  A    between atoms: _328  and  _329
REMARK  132  A    between atoms: _328  and  _331
REMARK  133  A    between atoms: _331  and  _332
REMARK  134  A    between atoms: _335  and  _337
REMARK  135  A    between atoms: _337  and  _338
REMARK  136  A    between atoms: _337  and  _340
REMARK  137  A    between atoms: _340  and  _341
REMARK  138  A    between atoms: _344  and  _346
REMARK  139  A    between atoms: _346  and  _347
REMARK  140  A    between atoms: _346  and  _349
REMARK  141  A    between atoms: _349  and  _350
REMARK  142  A    between atoms: _353  and  _355
REMARK  143  A    between atoms: _355  and  _356
REMARK  144  A    between atoms: _358  and  _360
REMARK  145  A    between atoms: _360  and  _361
REMARK  146  A    between atoms: _364  and  _366
REMARK  147  A    between atoms: _366  and  _367
REMARK  148  A    between atoms: _366  and  _369
REMARK  149  A    between atoms: _369  and  _370
REMARK  150  A    between atoms: _373  and  _375
REMARK  151  A    between atoms: _375  and  _376
REMARK  152  A    between atoms: _375  and  _378
REMARK  153  A    between atoms: _378  and  _379
REMARK  154  A    between atoms: _382  and  _384
REMARK  155  A    between atoms: _384  and  _385
REMARK  156  A    between atoms: _384  and  _387
REMARK  157  A    between atoms: _387  and  _388
REMARK  158  A    between atoms: _391  and  _393
REMARK  159  A    between atoms: _393  and  _394
REMARK  160  A    between atoms: _393  and  _396
REMARK  161  A    between atoms: _396  and  _397
REMARK  162  A    between atoms: _400  and  _402
REMARK  163  A    between atoms: _402  and  _403
REMARK  164  A    between atoms: _402  and  _405
REMARK  165  A    between atoms: _405  and  _406
REMARK  166  A    between atoms: _412  and  _414
REMARK  167  A    between atoms: _414  and  _415
REMARK  168  A    between atoms: _414  and  _417
REMARK  169  A    between atoms: _417  and  _418
REMARK  170  A    between atoms: _418  and  _419
REMARK  171  A    between atoms: _419  and  _420
REMARK  172  A    between atoms: _420  and  _421
REMARK  173  A    between atoms: _425  and  _427
REMARK  174  A    between atoms: _427  and  _428
REMARK  175  A    between atoms: _427  and  _430
REMARK  176  A    between atoms: _430  and  _431
REMARK  177  A    between atoms: _431  and  _432
REMARK  178  A    between atoms: _434  and  _436
REMARK  179  A    between atoms: _436  and  _437
REMARK  180  A    between atoms: _436  and  _439
REMARK  181  A    between atoms: _439  and  _440
REMARK  182  A    between atoms: _443  and  _445
REMARK  183  A    between atoms: _445  and  _446
REMARK  184  A    between atoms: _448  and  _450
REMARK  185  A    between atoms: _450  and  _451
REMARK  186  A    between atoms: _453  and  _455
REMARK  187  A    between atoms: _455  and  _456
REMARK  188  A    between atoms: _455  and  _458
REMARK  189  A    between atoms: _458  and  _459
REMARK  190  A    between atoms: _462  and  _464
REMARK  191  A    between atoms: _464  and  _465
REMARK  192  A    between atoms: _467  and  _469
REMARK  193  A    between atoms: _469  and  _470
REMARK  194  A    between atoms: _472  and  _474
REMARK  195  A    between atoms: _474  and  _475
REMARK  196  A    between atoms: _474  and  _477
REMARK  197  A    between atoms: _480  and  _482
REMARK  198  A    between atoms: _482  and  _483
REMARK  199  A    between atoms: _482  and  _485
REMARK  200  A    between atoms: _485  and  _486
REMARK  201  A    between atoms: _489  and  _491
REMARK  202  A    between atoms: _491  and  _492
REMARK  203  A    between atoms: _491  and  _494
REMARK  204  A    between atoms: _494  and  _495
REMARK  205  A    between atoms: _499  and  _500
REMARK  206  A    between atoms: _505  and  _507
REMARK  207  A    between atoms: _507  and  _508
REMARK  208  A    between atoms: _511  and  _513
REMARK  209  A    between atoms: _513  and  _514
REMARK  210  A    between atoms: _513  and  _516
REMARK  211  A    between atoms: _516  and  _517
REMARK  212  A    between atoms: _522  and  _524
REMARK  213  A    between atoms: _524  and  _525
REMARK  214  A    between atoms: _524  and  _527
REMARK  215  A    between atoms: _530  and  _532
REMARK  216  A    between atoms: _532  and  _533
REMARK  217  A    between atoms: _532  and  _535
REMARK  218  A    between atoms: _535  and  _536
REMARK  219  A    between atoms: _539  and  _541
REMARK  220  A    between atoms: _541  and  _542
REMARK  221  A    between atoms: _544  and  _546
REMARK  222  A    between atoms: _546  and  _547
REMARK  223  A    between atoms: _546  and  _549
REMARK  224  A    between atoms: _549  and  _550
REMARK  225  A    between atoms: _550  and  _551
REMARK  226  A    between atoms: _551  and  _552
REMARK  227  A    between atoms: _561  and  _563
REMARK  228  A    between atoms: _563  and  _564
REMARK  229  A    between atoms: _563  and  _566
REMARK  230  A    between atoms: _566  and  _567
REMARK                            x       y       z     vdW  Elec       q    Type
REMARK                         _______ _______ _______ _____ _____    ______ ____
ROOT
ATOM      1  O   HOH     1      24.783  -4.944   6.322  0.00  0.00    +0.000 OA
ENDROOT
TORSDOF 0
REMARK  Name = ../refined-set-2016/1sgu/1sgu_pocket.pdb
REMARK  230 active torsions:
REMARK  status: ('A' for Active; 'I' for Inactive)
REMARK    1  A    between atoms: _1  and  _3
REMARK    2  A    between atoms: _3  and  _4
REMARK    3  A    between atoms: _3  and  _6
REMARK    4  A    between atoms: _6  and  _7
REMARK    5  A    between atoms: _7  and  _8
REMARK    6  A    between atoms: _8  and  _9
REMARK    7  A    between atoms: _18  and  _20
REMARK    8  A    between atoms: _20  and  _21
REMARK    9  A    between atoms: _20  and  _23
REMARK   10  A    between atoms: _23  and  _24
REMARK   11  A    between atoms: _27  and  _29
REMARK   12  A    between atoms: _29  and  _30
REMARK   13  A    between atoms: _29  and  _32
REMARK   14  A    between atoms: _32  and  _33
REMARK   15  A    between atoms: _36  and  _38
REMARK   16  A    between atoms: _38  and  _39
REMARK   17  A    between atoms: _38  and  _41
REMARK   18  A    between atoms: _41  and  _42
REMARK   19  A    between atoms: _45  and  _47
REMARK   20  A    between atoms: _47  and  _48
REMARK   21  A    between atoms: _47  and  _50
REMARK   22  A    between atoms: _50  and  _51
REMARK   23  A    between atoms: _54  and  _56
REMARK   24  A    between atoms: _56  and  _57
REMARK   25  A    between atoms: _59  and  _61
REMARK   26  A    between atoms: _61  and  _62
REMARK   27  A    between atoms: _65  and  _67
REMARK   28  A    between atoms: _67  and  _68
REMARK   29  A    between atoms: _67  and  _70
REMARK   30  A    between atoms: _70  and  _71
REMARK   31  A    between atoms: _74  and  _76
REMARK   32  A    between atoms: _76  and  _77
REMARK   33  A    between atoms: _76  and  _79
REMARK   34  A    between atoms: _79  and  _80
REMARK   35  A    between atoms: _83  and  _85
REMARK   36  A    between atoms: _85  and  _86
REMARK   37  A    between atoms: _85  and  _88
REMARK   38  A    between atoms: _88  and  _89
REMARK   39  A    between atoms: _92  and  _94
REMARK   40  A    between atoms: _94  and  _95
REMARK   41  A    between atoms: _94  and  _97
REMARK   42  A    between atoms: _97  and  _98
REMARK   43  A    between atoms: _101  and  _103
REMARK   44  A    between atoms: _103  and  _104
REMARK   45  A    between atoms: _103  and  _106
REMARK   46  A    between atoms: _106  and  _107
REMARK   47  A    between atoms: _113  and  _115
REMARK   48  A    between atoms: _115  and  _116
REMARK   49  A    between atoms: _115  and  _118
REMARK   50  A    between atoms: _118  and  _119
REMARK   51  A    between atoms: _119  and  _120
REMARK   52  A    between atoms: _120  and  _121
REMARK   53  A    between atoms: _121  and  _122
REMARK   54  A    between atoms: _126  and  _128
REMARK   55  A    between atoms: _128  and  _129
REMARK   56  A    between atoms: _128  and  _131
REMARK   57  A    between atoms: _131  and  _132
REMARK   58  A    between atoms: _132  and  _133
REMARK   59  A    between atoms: _135  and  _137
REMARK   60  A    between atoms: _137  and  _138
REMARK   61  A    between atoms: _137  and  _140
REMARK   62  A    between atoms: _140  and  _141
REMARK   63  A    between atoms: _144  and  _146
REMARK   64  A    between atoms: _146  and  _147
REMARK   65  A    between atoms: _149  and  _151
REMARK   66  A    between atoms: _151  and  _152
REMARK   67  A    between atoms: _154  and  _156
REMARK   68  A    between atoms: _156  and  _157
REMARK   69  A    between atoms: _156  and  _159
REMARK   70  A    between atoms: _159  and  _160
REMARK   71  A    between atoms: _163  and  _165
REMARK   72  A    between atoms: _165  and  _166
REMARK   73  A    between atoms: _168  and  _170
REMARK   74  A    between atoms: _170  and  _171
REMARK   75  A    between atoms: _173  and  _175
REMARK   76  A    between atoms: _175  and  _176
REMARK   77  A    between atoms: _175  and  _178
REMARK   78  A    between atoms: _178  and  _179
REMARK   79  A    between atoms: _185  and  _187
REMARK   80  A    between atoms: _187  and  _188
REMARK   81  A    between atoms: _187  and  _190
REMARK   82  A    between atoms: _193  and  _195
REMARK   83  A    between atoms: _195  and  _196
REMARK   84  A    between atoms: _195  and  _198
REMARK   85  A    between atoms: _201  and  _203
REMARK   86  A    between atoms: _203  and  _204
REMARK   87  A    between atoms: _203  and  _206
REMARK   88  A    between atoms: _206  and  _207
REMARK   89  A    between atoms: _211  and  _212
REMARK   90  A    between atoms: _217  and  _219
REMARK   91  A    between atoms: _219  and  _220
REMARK   92  A    between atoms: _219  and  _222
REMARK   93  A    between atoms: _222  and  _223
REMARK   94  A    between atoms: _227  and  _228
REMARK   95  A    between atoms: _233  and  _235
REMARK   96  A    between atoms: _235  and  _236
REMARK   97  A    between atoms: _239  and  _241
REMARK   98  A    between atoms: _241  and  _242
REMARK   99  A    between atoms: _241  and  _244
REMARK  100  A    between atoms: _244  and  _245
REMARK  101  A    between atoms: _250  and  _252
REMARK  102  A    between atoms: _252  and  _253
REMARK  103  A    between atoms: _252  and  _255
REMARK  104  A    between atoms: _258  and  _260
REMARK  105  A    between atoms: _260  and  _261
REMARK  106  A    between atoms: _260  and  _263
REMARK  107  A    between atoms: _263  and  _264
REMARK  108  A    between atoms: _267  and  _269
REMARK  109  A    between atoms: _269  and  _270
REMARK  110  A    between atoms: _272  and  _274
REMARK  111  A    between atoms: _274  and  _275
REMARK  112  A    between atoms: _274  and  _277
REMARK  113  A    between atoms: _277  and  _278
REMARK  114  A    between atoms: _278  and  _279
REMARK  115  A    between atoms: _279  and  _280
REMARK  116  A    between atoms: _289  and  _291
REMARK  117  A    between atoms: _291  and  _292
REMARK  118  A    between atoms: _291  and  _294
REMARK  119  A    between atoms: _294  and  _295
REMARK  120  A    between atoms: _300  and  _302
REMARK  121  A    between atoms: _302  and  _303
REMARK  122  A    between atoms: _302  and  _305
REMARK  123  A    between atoms: _305  and  _306
REMARK  124  A    between atoms: _306  and  _307
REMARK  125  A    between atoms: _307  and  _308
REMARK  126  A    between atoms: _317  and  _319
REMARK  127  A    between atoms: _319  and  _320
REMARK  128  A    between atoms: _319  and  _322
REMARK  129  A    between atoms: _322  and  _323
REMARK  130  A    between atoms: _326  and  _328
REMARK  131  A    between atoms: _328  and  _329
REMARK  132  A    between atoms: _328  and  _331
REMARK  133  A    between atoms: _331  and  _332
REMARK  134  A    between atoms: _335  and  _337
REMARK  135  A    between atoms: _337  and  _338
REMARK  136  A    between atoms: _337  and  _340
REMARK  137  A    between atoms: _340  and  _341
REMARK  138  A    between atoms: _344  and  _346
REMARK  139  A    between atoms: _346  and  _347
REMARK  140  A    between atoms: _346  and  _349
REMARK  141  A    between atoms: _349  and  _350
REMARK  142  A    between atoms: _353  and  _355
REMARK  143  A    between atoms: _355  and  _356
REMARK  144  A    between atoms: _358  and  _360
REMARK  145  A    between atoms: _360  and  _361
REMARK  146  A    between atoms: _364  and  _366
REMARK  147  A    between atoms: _366  and  _367
REMARK  148  A    between atoms: _366  and  _369
REMARK  149  A    between atoms: _369  and  _370
REMARK  150  A    between atoms: _373  and  _375
REMARK  151  A    between atoms: _375  and  _376
REMARK  152  A    between atoms: _375  and  _378
REMARK  153  A    between atoms: _378  and  _379
REMARK  154  A    between atoms: _382  and  _384
REMARK  155  A    between atoms: _384  and  _385
REMARK  156  A    between atoms: _384  and  _387
REMARK  157  A    between atoms: _387  and  _388
REMARK  158  A    between atoms: _391  and  _393
REMARK  159  A    between atoms: _393  and  _394
REMARK  160  A    between atoms: _393  and  _396
REMARK  161  A    between atoms: _396  and  _397
REMARK  162  A    between atoms: _400  and  _402
REMARK  163  A    between atoms: _402  and  _403
REMARK  164  A    between atoms: _402  and  _405
REMARK  165  A    between atoms: _405  and  _406
REMARK  166  A    between atoms: _412  and  _414
REMARK  167  A    between atoms: _414  and  _415
REMARK  168  A    between atoms: _414  and  _417
REMARK  169  A    between atoms: _417  and  _418
REMARK  170  A    between atoms: _418  and  _419
REMARK  171  A    between atoms: _419  and  _420
REMARK  172  A    between atoms: _420  and  _421
REMARK  173  A    between atoms: _425  and  _427
REMARK  174  A    between atoms: _427  and  _428
REMARK  175  A    between atoms: _427  and  _430
REMARK  176  A    between atoms: _430  and  _431
REMARK  177  A    between atoms: _431  and  _432
REMARK  178  A    between atoms: _434  and  _436
REMARK  179  A    between atoms: _436  and  _437
REMARK  180  A    between atoms: _436  and  _439
REMARK  181  A    between atoms: _439  and  _440
REMARK  182  A    between atoms: _443  and  _445
REMARK  183  A    between atoms: _445  and  _446
REMARK  184  A    between atoms: _448  and  _450
REMARK  185  A    between atoms: _450  and  _451
REMARK  186  A    between atoms: _453  and  _455
REMARK  187  A    between atoms: _455  and  _456
REMARK  188  A    between atoms: _455  and  _458
REMARK  189  A    between atoms: _458  and  _459
REMARK  190  A    between atoms: _462  and  _464
REMARK  191  A    between atoms: _464  and  _465
REMARK  192  A    between atoms: _467  and  _469
REMARK  193  A    between atoms: _469  and  _470
REMARK  194  A    between atoms: _472  and  _474
REMARK  195  A    between atoms: _474  and  _475
REMARK  196  A    between atoms: _474  and  _477
REMARK  197  A    between atoms: _480  and  _482
REMARK  198  A    between atoms: _482  and  _483
REMARK  199  A    between atoms: _482  and  _485
REMARK  200  A    between atoms: _485  and  _486
REMARK  201  A    between atoms: _489  and  _491
REMARK  202  A    between atoms: _491  and  _492
REMARK  203  A    between atoms: _491  and  _494
REMARK  204  A    between atoms: _494  and  _495
REMARK  205  A    between atoms: _499  and  _500
REMARK  206  A    between atoms: _505  and  _507
REMARK  207  A    between atoms: _507  and  _508
REMARK  208  A    between atoms: _511  and  _513
REMARK  209  A    between atoms: _513  and  _514
REMARK  210  A    between atoms: _513  and  _516
REMARK  211  A    between atoms: _516  and  _517
REMARK  212  A    between atoms: _522  and  _524
REMARK  213  A    between atoms: _524  and  _525
REMARK  214  A    between atoms: _524  and  _527
REMARK  215  A    between atoms: _530  and  _532
REMARK  216  A    between atoms: _532  and  _533
REMARK  217  A    between atoms: _532  and  _535
REMARK  218  A    between atoms: _535  and  _536
REMARK  219  A    between atoms: _539  and  _541
REMARK  220  A    between atoms: _541  and  _542
REMARK  221  A    between atoms: _544  and  _546
REMARK  222  A    between atoms: _546  and  _547
REMARK  223  A    between atoms: _546  and  _549
REMARK  224  A    between atoms: _549  and  _550
REMARK  225  A    between atoms: _550  and  _551
REMARK  226  A    between atoms: _551  and  _552
REMARK  227  A    between atoms: _561  and  _563
REMARK  228  A    between atoms: _563  and  _564
REMARK  229  A    between atoms: _563  and  _566
REMARK  230  A    between atoms: _566  and  _567
REMARK                            x       y       z     vdW  Elec       q    Type
REMARK                         _______ _______ _______ _____ _____    ______ ____
ROOT
ATOM      1  O   HOH     1      21.170   2.072  -2.376  0.00  0.00    +0.000 OA
ENDROOT
TORSDOF 0
REMARK  Name = ../refined-set-2016/1sgu/1sgu_pocket.pdb
REMARK  230 active torsions:
REMARK  status: ('A' for Active; 'I' for Inactive)
REMARK    1  A    between atoms: _1  and  _3
REMARK    2  A    between atoms: _3  and  _4
REMARK    3  A    between atoms: _3  and  _6
REMARK    4  A    between atoms: _6  and  _7
REMARK    5  A    between atoms: _7  and  _8
REMARK    6  A    between atoms: _8  and  _9
REMARK    7  A    between atoms: _18  and  _20
REMARK    8  A    between atoms: _20  and  _21
REMARK    9  A    between atoms: _20  and  _23
REMARK   10  A    between atoms: _23  and  _24
REMARK   11  A    between atoms: _27  and  _29
REMARK   12  A    between atoms: _29  and  _30
REMARK   13  A    between atoms: _29  and  _32
REMARK   14  A    between atoms: _32  and  _33
REMARK   15  A    between atoms: _36  and  _38
REMARK   16  A    between atoms: _38  and  _39
REMARK   17  A    between atoms: _38  and  _41
REMARK   18  A    between atoms: _41  and  _42
REMARK   19  A    between atoms: _45  and  _47
REMARK   20  A    between atoms: _47  and  _48
REMARK   21  A    between atoms: _47  and  _50
REMARK   22  A    between atoms: _50  and  _51
REMARK   23  A    between atoms: _54  and  _56
REMARK   24  A    between atoms: _56  and  _57
REMARK   25  A    between atoms: _59  and  _61
REMARK   26  A    between atoms: _61  and  _62
REMARK   27  A    between atoms: _65  and  _67
REMARK   28  A    between atoms: _67  and  _68
REMARK   29  A    between atoms: _67  and  _70
REMARK   30  A    between atoms: _70  and  _71
REMARK   31  A    between atoms: _74  and  _76
REMARK   32  A    between atoms: _76  and  _77
REMARK   33  A    between atoms: _76  and  _79
REMARK   34  A    between atoms: _79  and  _80
REMARK   35  A    between atoms: _83  and  _85
REMARK   36  A    between atoms: _85  and  _86
REMARK   37  A    between atoms: _85  and  _88
REMARK   38  A    between atoms: _88  and  _89
REMARK   39  A    between atoms: _92  and  _94
REMARK   40  A    between atoms: _94  and  _95
REMARK   41  A    between atoms: _94  and  _97
REMARK   42  A    between atoms: _97  and  _98
REMARK   43  A    between atoms: _101  and  _103
REMARK   44  A    between atoms: _103  and  _104
REMARK   45  A    between atoms: _103  and  _106
REMARK   46  A    between atoms: _106  and  _107
REMARK   47  A    between atoms: _113  and  _115
REMARK   48  A    between atoms: _115  and  _116
REMARK   49  A    between atoms: _115  and  _118
REMARK   50  A    between atoms: _118  and  _119
REMARK   51  A    between atoms: _119  and  _120
REMARK   52  A    between atoms: _120  and  _121
REMARK   53  A    between atoms: _121  and  _122
REMARK   54  A    between atoms: _126  and  _128
REMARK   55  A    between atoms: _128  and  _129
REMARK   56  A    between atoms: _128  and  _131
REMARK   57  A    between atoms: _131  and  _132
REMARK   58  A    between atoms: _132  and  _133
REMARK   59  A    between atoms: _135  and  _137
REMARK   60  A    between atoms: _137  and  _138
REMARK   61  A    between atoms: _137  and  _140
REMARK   62  A    between atoms: _140  and  _141
REMARK   63  A    between atoms: _144  and  _146
REMARK   64  A    between atoms: _146  and  _147
REMARK   65  A    between atoms: _149  and  _151
REMARK   66  A    between atoms: _151  and  _152
REMARK   67  A    between atoms: _154  and  _156
REMARK   68  A    between atoms: _156  and  _157
REMARK   69  A    between atoms: _156  and  _159
REMARK   70  A    between atoms: _159  and  _160
REMARK   71  A    between atoms: _163  and  _165
REMARK   72  A    between atoms: _165  and  _166
REMARK   73  A    between atoms: _168  and  _170
REMARK   74  A    between atoms: _170  and  _171
REMARK   75  A    between atoms: _173  and  _175
REMARK   76  A    between atoms: _175  and  _176
REMARK   77  A    between atoms: _175  and  _178
REMARK   78  A    between atoms: _178  and  _179
REMARK   79  A    between atoms: _185  and  _187
REMARK   80  A    between atoms: _187  and  _188
REMARK   81  A    between atoms: _187  and  _190
REMARK   82  A    between atoms: _193  and  _195
REMARK   83  A    between atoms: _195  and  _196
REMARK   84  A    between atoms: _195  and  _198
REMARK   85  A    between atoms: _201  and  _203
REMARK   86  A    between atoms: _203  and  _204
REMARK   87  A    between atoms: _203  and  _206
REMARK   88  A    between atoms: _206  and  _207
REMARK   89  A    between atoms: _211  and  _212
REMARK   90  A    between atoms: _217  and  _219
REMARK   91  A    between atoms: _219  and  _220
REMARK   92  A    between atoms: _219  and  _222
REMARK   93  A    between atoms: _222  and  _223
REMARK   94  A    between atoms: _227  and  _228
REMARK   95  A    between atoms: _233  and  _235
REMARK   96  A    between atoms: _235  and  _236
REMARK   97  A    between atoms: _239  and  _241
REMARK   98  A    between atoms: _241  and  _242
REMARK   99  A    between atoms: _241  and  _244
REMARK  100  A    between atoms: _244  and  _245
REMARK  101  A    between atoms: _250  and  _252
REMARK  102  A    between atoms: _252  and  _253
REMARK  103  A    between atoms: _252  and  _255
REMARK  104  A    between atoms: _258  and  _260
REMARK  105  A    between atoms: _260  and  _261
REMARK  106  A    between atoms: _260  and  _263
REMARK  107  A    between atoms: _263  and  _264
REMARK  108  A    between atoms: _267  and  _269
REMARK  109  A    between atoms: _269  and  _270
REMARK  110  A    between atoms: _272  and  _274
REMARK  111  A    between atoms: _274  and  _275
REMARK  112  A    between atoms: _274  and  _277
REMARK  113  A    between atoms: _277  and  _278
REMARK  114  A    between atoms: _278  and  _279
REMARK  115  A    between atoms: _279  and  _280
REMARK  116  A    between atoms: _289  and  _291
REMARK  117  A    between atoms: _291  and  _292
REMARK  118  A    between atoms: _291  and  _294
REMARK  119  A    between atoms: _294  and  _295
REMARK  120  A    between atoms: _300  and  _302
REMARK  121  A    between atoms: _302  and  _303
REMARK  122  A    between atoms: _302  and  _305
REMARK  123  A    between atoms: _305  and  _306
REMARK  124  A    between atoms: _306  and  _307
REMARK  125  A    between atoms: _307  and  _308
REMARK  126  A    between atoms: _317  and  _319
REMARK  127  A    between atoms: _319  and  _320
REMARK  128  A    between atoms: _319  and  _322
REMARK  129  A    between atoms: _322  and  _323
REMARK  130  A    between atoms: _326  and  _328
REMARK  131  A    between atoms: _328  and  _329
REMARK  132  A    between atoms: _328  and  _331
REMARK  133  A    between atoms: _331  and  _332
REMARK  134  A    between atoms: _335  and  _337
REMARK  135  A    between atoms: _337  and  _338
REMARK  136  A    between atoms: _337  and  _340
REMARK  137  A    between atoms: _340  and  _341
REMARK  138  A    between atoms: _344  and  _346
REMARK  139  A    between atoms: _346  and  _347
REMARK  140  A    between atoms: _346  and  _349
REMARK  141  A    between atoms: _349  and  _350
REMARK  142  A    between atoms: _353  and  _355
REMARK  143  A    between atoms: _355  and  _356
REMARK  144  A    between atoms: _358  and  _360
REMARK  145  A    between atoms: _360  and  _361
REMARK  146  A    between atoms: _364  and  _366
REMARK  147  A    between atoms: _366  and  _367
REMARK  148  A    between atoms: _366  and  _369
REMARK  149  A    between atoms: _369  and  _370
REMARK  150  A    between atoms: _373  and  _375
REMARK  151  A    between atoms: _375  and  _376
REMARK  152  A    between atoms: _375  and  _378
REMARK  153  A    between atoms: _378  and  _379
REMARK  154  A    between atoms: _382  and  _384
REMARK  155  A    between atoms: _384  and  _385
REMARK  156  A    between atoms: _384  and  _387
REMARK  157  A    between atoms: _387  and  _388
REMARK  158  A    between atoms: _391  and  _393
REMARK  159  A    between atoms: _393  and  _394
REMARK  160  A    between atoms: _393  and  _396
REMARK  161  A    between atoms: _396  and  _397
REMARK  162  A    between atoms: _400  and  _402
REMARK  163  A    between atoms: _402  and  _403
REMARK  164  A    between atoms: _402  and  _405
REMARK  165  A    between atoms: _405  and  _406
REMARK  166  A    between atoms: _412  and  _414
REMARK  167  A    between atoms: _414  and  _415
REMARK  168  A    between atoms: _414  and  _417
REMARK  169  A    between atoms: _417  and  _418
REMARK  170  A    between atoms: _418  and  _419
REMARK  171  A    between atoms: _419  and  _420
REMARK  172  A    between atoms: _420  and  _421
REMARK  173  A    between atoms: _425  and  _427
REMARK  174  A    between atoms: _427  and  _428
REMARK  175  A    between atoms: _427  and  _430
REMARK  176  A    between atoms: _430  and  _431
REMARK  177  A    between atoms: _431  and  _432
REMARK  178  A    between atoms: _434  and  _436
REMARK  179  A    between atoms: _436  and  _437
REMARK  180  A    between atoms: _436  and  _439
REMARK  181  A    between atoms: _439  and  _440
REMARK  182  A    between atoms: _443  and  _445
REMARK  183  A    between atoms: _445  and  _446
REMARK  184  A    between atoms: _448  and  _450
REMARK  185  A    between atoms: _450  and  _451
REMARK  186  A    between atoms: _453  and  _455
REMARK  187  A    between atoms: _455  and  _456
REMARK  188  A    between atoms: _455  and  _458
REMARK  189  A    between atoms: _458  and  _459
REMARK  190  A    between atoms: _462  and  _464
REMARK  191  A    between atoms: _464  and  _465
REMARK  192  A    between atoms: _467  and  _469
REMARK  193  A    between atoms: _469  and  _470
REMARK  194  A    between atoms: _472  and  _474
REMARK  195  A    between atoms: _474  and  _475
REMARK  196  A    between atoms: _474  and  _477
REMARK  197  A    between atoms: _480  and  _482
REMARK  198  A    between atoms: _482  and  _483
REMARK  199  A    between atoms: _482  and  _485
REMARK  200  A    between atoms: _485  and  _486
REMARK  201  A    between atoms: _489  and  _491
REMARK  202  A    between atoms: _491  and  _492
REMARK  203  A    between atoms: _491  and  _494
REMARK  204  A    between atoms: _494  and  _495
REMARK  205  A    between atoms: _499  and  _500
REMARK  206  A    between atoms: _505  and  _507
REMARK  207  A    between atoms: _507  and  _508
REMARK  208  A    between atoms: _511  and  _513
REMARK  209  A    between atoms: _513  and  _514
REMARK  210  A    between atoms: _513  and  _516
REMARK  211  A    between atoms: _516  and  _517
REMARK  212  A    between atoms: _522  and  _524
REMARK  213  A    between atoms: _524  and  _525
REMARK  214  A    between atoms: _524  and  _527
REMARK  215  A    between atoms: _530  and  _532
REMARK  216  A    between atoms: _532  and  _533
REMARK  217  A    between atoms: _532  and  _535
REMARK  218  A    between atoms: _535  and  _536
REMARK  219  A    between atoms: _539  and  _541
REMARK  220  A    between atoms: _541  and  _542
REMARK  221  A    between atoms: _544  and  _546
REMARK  222  A    between atoms: _546  and  _547
REMARK  223  A    between atoms: _546  and  _549
REMARK  224  A    between atoms: _549  and  _550
REMARK  225  A    between atoms: _550  and  _551
REMARK  226  A    between atoms: _551  and  _552
REMARK  227  A    between atoms: _561  and  _563
REMARK  228  A    between atoms: _563  and  _564
REMARK  229  A    between atoms: _563  and  _566
REMARK  230  A    between atoms: _566  and  _567
REMARK                            x       y       z     vdW  Elec       q    Type
REMARK                         _______ _______ _______ _____ _____    ______ ____
ROOT
ATOM      1  O   HOH     1      15.873  -0.012  10.691  0.00  0.00    +0.000 OA
ENDROOT
TORSDOF 0
REMARK  Name = ../refined-set-2016/1sgu/1sgu_pocket.pdb
REMARK  230 active torsions:
REMARK  status: ('A' for Active; 'I' for Inactive)
REMARK    1  A    between atoms: _1  and  _3
REMARK    2  A    between atoms: _3  and  _4
REMARK    3  A    between atoms: _3  and  _6
REMARK    4  A    between atoms: _6  and  _7
REMARK    5  A    between atoms: _7  and  _8
REMARK    6  A    between atoms: _8  and  _9
REMARK    7  A    between atoms: _18  and  _20
REMARK    8  A    between atoms: _20  and  _21
REMARK    9  A    between atoms: _20  and  _23
REMARK   10  A    between atoms: _23  and  _24
REMARK   11  A    between atoms: _27  and  _29
REMARK   12  A    between atoms: _29  and  _30
REMARK   13  A    between atoms: _29  and  _32
REMARK   14  A    between atoms: _32  and  _33
REMARK   15  A    between atoms: _36  and  _38
REMARK   16  A    between atoms: _38  and  _39
REMARK   17  A    between atoms: _38  and  _41
REMARK   18  A    between atoms: _41  and  _42
REMARK   19  A    between atoms: _45  and  _47
REMARK   20  A    between atoms: _47  and  _48
REMARK   21  A    between atoms: _47  and  _50
REMARK   22  A    between atoms: _50  and  _51
REMARK   23  A    between atoms: _54  and  _56
REMARK   24  A    between atoms: _56  and  _57
REMARK   25  A    between atoms: _59  and  _61
REMARK   26  A    between atoms: _61  and  _62
REMARK   27  A    between atoms: _65  and  _67
REMARK   28  A    between atoms: _67  and  _68
REMARK   29  A    between atoms: _67  and  _70
REMARK   30  A    between atoms: _70  and  _71
REMARK   31  A    between atoms: _74  and  _76
REMARK   32  A    between atoms: _76  and  _77
REMARK   33  A    between atoms: _76  and  _79
REMARK   34  A    between atoms: _79  and  _80
REMARK   35  A    between atoms: _83  and  _85
REMARK   36  A    between atoms: _85  and  _86
REMARK   37  A    between atoms: _85  and  _88
REMARK   38  A    between atoms: _88  and  _89
REMARK   39  A    between atoms: _92  and  _94
REMARK   40  A    between atoms: _94  and  _95
REMARK   41  A    between atoms: _94  and  _97
REMARK   42  A    between atoms: _97  and  _98
REMARK   43  A    between atoms: _101  and  _103
REMARK   44  A    between atoms: _103  and  _104
REMARK   45  A    between atoms: _103  and  _106
REMARK   46  A    between atoms: _106  and  _107
REMARK   47  A    between atoms: _113  and  _115
REMARK   48  A    between atoms: _115  and  _116
REMARK   49  A    between atoms: _115  and  _118
REMARK   50  A    between atoms: _118  and  _119
REMARK   51  A    between atoms: _119  and  _120
REMARK   52  A    between atoms: _120  and  _121
REMARK   53  A    between atoms: _121  and  _122
REMARK   54  A    between atoms: _126  and  _128
REMARK   55  A    between atoms: _128  and  _129
REMARK   56  A    between atoms: _128  and  _131
REMARK   57  A    between atoms: _131  and  _132
REMARK   58  A    between atoms: _132  and  _133
REMARK   59  A    between atoms: _135  and  _137
REMARK   60  A    between atoms: _137  and  _138
REMARK   61  A    between atoms: _137  and  _140
REMARK   62  A    between atoms: _140  and  _141
REMARK   63  A    between atoms: _144  and  _146
REMARK   64  A    between atoms: _146  and  _147
REMARK   65  A    between atoms: _149  and  _151
REMARK   66  A    between atoms: _151  and  _152
REMARK   67  A    between atoms: _154  and  _156
REMARK   68  A    between atoms: _156  and  _157
REMARK   69  A    between atoms: _156  and  _159
REMARK   70  A    between atoms: _159  and  _160
REMARK   71  A    between atoms: _163  and  _165
REMARK   72  A    between atoms: _165  and  _166
REMARK   73  A    between atoms: _168  and  _170
REMARK   74  A    between atoms: _170  and  _171
REMARK   75  A    between atoms: _173  and  _175
REMARK   76  A    between atoms: _175  and  _176
REMARK   77  A    between atoms: _175  and  _178
REMARK   78  A    between atoms: _178  and  _179
REMARK   79  A    between atoms: _185  and  _187
REMARK   80  A    between atoms: _187  and  _188
REMARK   81  A    between atoms: _187  and  _190
REMARK   82  A    between atoms: _193  and  _195
REMARK   83  A    between atoms: _195  and  _196
REMARK   84  A    between atoms: _195  and  _198
REMARK   85  A    between atoms: _201  and  _203
REMARK   86  A    between atoms: _203  and  _204
REMARK   87  A    between atoms: _203  and  _206
REMARK   88  A    between atoms: _206  and  _207
REMARK   89  A    between atoms: _211  and  _212
REMARK   90  A    between atoms: _217  and  _219
REMARK   91  A    between atoms: _219  and  _220
REMARK   92  A    between atoms: _219  and  _222
REMARK   93  A    between atoms: _222  and  _223
REMARK   94  A    between atoms: _227  and  _228
REMARK   95  A    between atoms: _233  and  _235
REMARK   96  A    between atoms: _235  and  _236
REMARK   97  A    between atoms: _239  and  _241
REMARK   98  A    between atoms: _241  and  _242
REMARK   99  A    between atoms: _241  and  _244
REMARK  100  A    between atoms: _244  and  _245
REMARK  101  A    between atoms: _250  and  _252
REMARK  102  A    between atoms: _252  and  _253
REMARK  103  A    between atoms: _252  and  _255
REMARK  104  A    between atoms: _258  and  _260
REMARK  105  A    between atoms: _260  and  _261
REMARK  106  A    between atoms: _260  and  _263
REMARK  107  A    between atoms: _263  and  _264
REMARK  108  A    between atoms: _267  and  _269
REMARK  109  A    between atoms: _269  and  _270
REMARK  110  A    between atoms: _272  and  _274
REMARK  111  A    between atoms: _274  and  _275
REMARK  112  A    between atoms: _274  and  _277
REMARK  113  A    between atoms: _277  and  _278
REMARK  114  A    between atoms: _278  and  _279
REMARK  115  A    between atoms: _279  and  _280
REMARK  116  A    between atoms: _289  and  _291
REMARK  117  A    between atoms: _291  and  _292
REMARK  118  A    between atoms: _291  and  _294
REMARK  119  A    between atoms: _294  and  _295
REMARK  120  A    between atoms: _300  and  _302
REMARK  121  A    between atoms: _302  and  _303
REMARK  122  A    between atoms: _302  and  _305
REMARK  123  A    between atoms: _305  and  _306
REMARK  124  A    between atoms: _306  and  _307
REMARK  125  A    between atoms: _307  and  _308
REMARK  126  A    between atoms: _317  and  _319
REMARK  127  A    between atoms: _319  and  _320
REMARK  128  A    between atoms: _319  and  _322
REMARK  129  A    between atoms: _322  and  _323
REMARK  130  A    between atoms: _326  and  _328
REMARK  131  A    between atoms: _328  and  _329
REMARK  132  A    between atoms: _328  and  _331
REMARK  133  A    between atoms: _331  and  _332
REMARK  134  A    between atoms: _335  and  _337
REMARK  135  A    between atoms: _337  and  _338
REMARK  136  A    between atoms: _337  and  _340
REMARK  137  A    between atoms: _340  and  _341
REMARK  138  A    between atoms: _344  and  _346
REMARK  139  A    between atoms: _346  and  _347
REMARK  140  A    between atoms: _346  and  _349
REMARK  141  A    between atoms: _349  and  _350
REMARK  142  A    between atoms: _353  and  _355
REMARK  143  A    between atoms: _355  and  _356
REMARK  144  A    between atoms: _358  and  _360
REMARK  145  A    between atoms: _360  and  _361
REMARK  146  A    between atoms: _364  and  _366
REMARK  147  A    between atoms: _366  and  _367
REMARK  148  A    between atoms: _366  and  _369
REMARK  149  A    between atoms: _369  and  _370
REMARK  150  A    between atoms: _373  and  _375
REMARK  151  A    between atoms: _375  and  _376
REMARK  152  A    between atoms: _375  and  _378
REMARK  153  A    between atoms: _378  and  _379
REMARK  154  A    between atoms: _382  and  _384
REMARK  155  A    between atoms: _384  and  _385
REMARK  156  A    between atoms: _384  and  _387
REMARK  157  A    between atoms: _387  and  _388
REMARK  158  A    between atoms: _391  and  _393
REMARK  159  A    between atoms: _393  and  _394
REMARK  160  A    between atoms: _393  and  _396
REMARK  161  A    between atoms: _396  and  _397
REMARK  162  A    between atoms: _400  and  _402
REMARK  163  A    between atoms: _402  and  _403
REMARK  164  A    between atoms: _402  and  _405
REMARK  165  A    between atoms: _405  and  _406
REMARK  166  A    between atoms: _412  and  _414
REMARK  167  A    between atoms: _414  and  _415
REMARK  168  A    between atoms: _414  and  _417
REMARK  169  A    between atoms: _417  and  _418
REMARK  170  A    between atoms: _418  and  _419
REMARK  171  A    between atoms: _419  and  _420
REMARK  172  A    between atoms: _420  and  _421
REMARK  173  A    between atoms: _425  and  _427
REMARK  174  A    between atoms: _427  and  _428
REMARK  175  A    between atoms: _427  and  _430
REMARK  176  A    between atoms: _430  and  _431
REMARK  177  A    between atoms: _431  and  _432
REMARK  178  A    between atoms: _434  and  _436
REMARK  179  A    between atoms: _436  and  _437
REMARK  180  A    between atoms: _436  and  _439
REMARK  181  A    between atoms: _439  and  _440
REMARK  182  A    between atoms: _443  and  _445
REMARK  183  A    between atoms: _445  and  _446
REMARK  184  A    between atoms: _448  and  _450
REMARK  185  A    between atoms: _450  and  _451
REMARK  186  A    between atoms: _453  and  _455
REMARK  187  A    between atoms: _455  and  _456
REMARK  188  A    between atoms: _455  and  _458
REMARK  189  A    between atoms: _458  and  _459
REMARK  190  A    between atoms: _462  and  _464
REMARK  191  A    between atoms: _464  and  _465
REMARK  192  A    between atoms: _467  and  _469
REMARK  193  A    between atoms: _469  and  _470
REMARK  194  A    between atoms: _472  and  _474
REMARK  195  A    between atoms: _474  and  _475
REMARK  196  A    between atoms: _474  and  _477
REMARK  197  A    between atoms: _480  and  _482
REMARK  198  A    between atoms: _482  and  _483
REMARK  199  A    between atoms: _482  and  _485
REMARK  200  A    between atoms: _485  and  _486
REMARK  201  A    between atoms: _489  and  _491
REMARK  202  A    between atoms: _491  and  _492
REMARK  203  A    between atoms: _491  and  _494
REMARK  204  A    between atoms: _494  and  _495
REMARK  205  A    between atoms: _499  and  _500
REMARK  206  A    between atoms: _505  and  _507
REMARK  207  A    between atoms: _507  and  _508
REMARK  208  A    between atoms: _511  and  _513
REMARK  209  A    between atoms: _513  and  _514
REMARK  210  A    between atoms: _513  and  _516
REMARK  211  A    between atoms: _516  and  _517
REMARK  212  A    between atoms: _522  and  _524
REMARK  213  A    between atoms: _524  and  _525
REMARK  214  A    between atoms: _524  and  _527
REMARK  215  A    between atoms: _530  and  _532
REMARK  216  A    between atoms: _532  and  _533
REMARK  217  A    between atoms: _532  and  _535
REMARK  218  A    between atoms: _535  and  _536
REMARK  219  A    between atoms: _539  and  _541
REMARK  220  A    between atoms: _541  and  _542
REMARK  221  A    between atoms: _544  and  _546
REMARK  222  A    between atoms: _546  and  _547
REMARK  223  A    between atoms: _546  and  _549
REMARK  224  A    between atoms: _549  and  _550
REMARK  225  A    between atoms: _550  and  _551
REMARK  226  A    between atoms: _551  and  _552
REMARK  227  A    between atoms: _561  and  _563
REMARK  228  A    between atoms: _563  and  _564
REMARK  229  A    between atoms: _563  and  _566
REMARK  230  A    between atoms: _566  and  _567
REMARK                            x       y       z     vdW  Elec       q    Type
REMARK                         _______ _______ _______ _____ _____    ______ ____
ROOT
ATOM      1  O   HOH     1      21.543  -0.576  -3.498  0.00  0.00    +0.000 OA
ENDROOT
TORSDOF 0
REMARK  Name = ../refined-set-2016/1sgu/1sgu_pocket.pdb
REMARK  230 active torsions:
REMARK  status: ('A' for Active; 'I' for Inactive)
REMARK    1  A    between atoms: _1  and  _3
REMARK    2  A    between atoms: _3  and  _4
REMARK    3  A    between atoms: _3  and  _6
REMARK    4  A    between atoms: _6  and  _7
REMARK    5  A    between atoms: _7  and  _8
REMARK    6  A    between atoms: _8  and  _9
REMARK    7  A    between atoms: _18  and  _20
REMARK    8  A    between atoms: _20  and  _21
REMARK    9  A    between atoms: _20  and  _23
REMARK   10  A    between atoms: _23  and  _24
REMARK   11  A    between atoms: _27  and  _29
REMARK   12  A    between atoms: _29  and  _30
REMARK   13  A    between atoms: _29  and  _32
REMARK   14  A    between atoms: _32  and  _33
REMARK   15  A    between atoms: _36  and  _38
REMARK   16  A    between atoms: _38  and  _39
REMARK   17  A    between atoms: _38  and  _41
REMARK   18  A    between atoms: _41  and  _42
REMARK   19  A    between atoms: _45  and  _47
REMARK   20  A    between atoms: _47  and  _48
REMARK   21  A    between atoms: _47  and  _50
REMARK   22  A    between atoms: _50  and  _51
REMARK   23  A    between atoms: _54  and  _56
REMARK   24  A    between atoms: _56  and  _57
REMARK   25  A    between atoms: _59  and  _61
REMARK   26  A    between atoms: _61  and  _62
REMARK   27  A    between atoms: _65  and  _67
REMARK   28  A    between atoms: _67  and  _68
REMARK   29  A    between atoms: _67  and  _70
REMARK   30  A    between atoms: _70  and  _71
REMARK   31  A    between atoms: _74  and  _76
REMARK   32  A    between atoms: _76  and  _77
REMARK   33  A    between atoms: _76  and  _79
REMARK   34  A    between atoms: _79  and  _80
REMARK   35  A    between atoms: _83  and  _85
REMARK   36  A    between atoms: _85  and  _86
REMARK   37  A    between atoms: _85  and  _88
REMARK   38  A    between atoms: _88  and  _89
REMARK   39  A    between atoms: _92  and  _94
REMARK   40  A    between atoms: _94  and  _95
REMARK   41  A    between atoms: _94  and  _97
REMARK   42  A    between atoms: _97  and  _98
REMARK   43  A    between atoms: _101  and  _103
REMARK   44  A    between atoms: _103  and  _104
REMARK   45  A    between atoms: _103  and  _106
REMARK   46  A    between atoms: _106  and  _107
REMARK   47  A    between atoms: _113  and  _115
REMARK   48  A    between atoms: _115  and  _116
REMARK   49  A    between atoms: _115  and  _118
REMARK   50  A    between atoms: _118  and  _119
REMARK   51  A    between atoms: _119  and  _120
REMARK   52  A    between atoms: _120  and  _121
REMARK   53  A    between atoms: _121  and  _122
REMARK   54  A    between atoms: _126  and  _128
REMARK   55  A    between atoms: _128  and  _129
REMARK   56  A    between atoms: _128  and  _131
REMARK   57  A    between atoms: _131  and  _132
REMARK   58  A    between atoms: _132  and  _133
REMARK   59  A    between atoms: _135  and  _137
REMARK   60  A    between atoms: _137  and  _138
REMARK   61  A    between atoms: _137  and  _140
REMARK   62  A    between atoms: _140  and  _141
REMARK   63  A    between atoms: _144  and  _146
REMARK   64  A    between atoms: _146  and  _147
REMARK   65  A    between atoms: _149  and  _151
REMARK   66  A    between atoms: _151  and  _152
REMARK   67  A    between atoms: _154  and  _156
REMARK   68  A    between atoms: _156  and  _157
REMARK   69  A    between atoms: _156  and  _159
REMARK   70  A    between atoms: _159  and  _160
REMARK   71  A    between atoms: _163  and  _165
REMARK   72  A    between atoms: _165  and  _166
REMARK   73  A    between atoms: _168  and  _170
REMARK   74  A    between atoms: _170  and  _171
REMARK   75  A    between atoms: _173  and  _175
REMARK   76  A    between atoms: _175  and  _176
REMARK   77  A    between atoms: _175  and  _178
REMARK   78  A    between atoms: _178  and  _179
REMARK   79  A    between atoms: _185  and  _187
REMARK   80  A    between atoms: _187  and  _188
REMARK   81  A    between atoms: _187  and  _190
REMARK   82  A    between atoms: _193  and  _195
REMARK   83  A    between atoms: _195  and  _196
REMARK   84  A    between atoms: _195  and  _198
REMARK   85  A    between atoms: _201  and  _203
REMARK   86  A    between atoms: _203  and  _204
REMARK   87  A    between atoms: _203  and  _206
REMARK   88  A    between atoms: _206  and  _207
REMARK   89  A    between atoms: _211  and  _212
REMARK   90  A    between atoms: _217  and  _219
REMARK   91  A    between atoms: _219  and  _220
REMARK   92  A    between atoms: _219  and  _222
REMARK   93  A    between atoms: _222  and  _223
REMARK   94  A    between atoms: _227  and  _228
REMARK   95  A    between atoms: _233  and  _235
REMARK   96  A    between atoms: _235  and  _236
REMARK   97  A    between atoms: _239  and  _241
REMARK   98  A    between atoms: _241  and  _242
REMARK   99  A    between atoms: _241  and  _244
REMARK  100  A    between atoms: _244  and  _245
REMARK  101  A    between atoms: _250  and  _252
REMARK  102  A    between atoms: _252  and  _253
REMARK  103  A    between atoms: _252  and  _255
REMARK  104  A    between atoms: _258  and  _260
REMARK  105  A    between atoms: _260  and  _261
REMARK  106  A    between atoms: _260  and  _263
REMARK  107  A    between atoms: _263  and  _264
REMARK  108  A    between atoms: _267  and  _269
REMARK  109  A    between atoms: _269  and  _270
REMARK  110  A    between atoms: _272  and  _274
REMARK  111  A    between atoms: _274  and  _275
REMARK  112  A    between atoms: _274  and  _277
REMARK  113  A    between atoms: _277  and  _278
REMARK  114  A    between atoms: _278  and  _279
REMARK  115  A    between atoms: _279  and  _280
REMARK  116  A    between atoms: _289  and  _291
REMARK  117  A    between atoms: _291  and  _292
REMARK  118  A    between atoms: _291  and  _294
REMARK  119  A    between atoms: _294  and  _295
REMARK  120  A    between atoms: _300  and  _302
REMARK  121  A    between atoms: _302  and  _303
REMARK  122  A    between atoms: _302  and  _305
REMARK  123  A    between atoms: _305  and  _306
REMARK  124  A    between atoms: _306  and  _307
REMARK  125  A    between atoms: _307  and  _308
REMARK  126  A    between atoms: _317  and  _319
REMARK  127  A    between atoms: _319  and  _320
REMARK  128  A    between atoms: _319  and  _322
REMARK  129  A    between atoms: _322  and  _323
REMARK  130  A    between atoms: _326  and  _328
REMARK  131  A    between atoms: _328  and  _329
REMARK  132  A    between atoms: _328  and  _331
REMARK  133  A    between atoms: _331  and  _332
REMARK  134  A    between atoms: _335  and  _337
REMARK  135  A    between atoms: _337  and  _338
REMARK  136  A    between atoms: _337  and  _340
REMARK  137  A    between atoms: _340  and  _341
REMARK  138  A    between atoms: _344  and  _346
REMARK  139  A    between atoms: _346  and  _347
REMARK  140  A    between atoms: _346  and  _349
REMARK  141  A    between atoms: _349  and  _350
REMARK  142  A    between atoms: _353  and  _355
REMARK  143  A    between atoms: _355  and  _356
REMARK  144  A    between atoms: _358  and  _360
REMARK  145  A    between atoms: _360  and  _361
REMARK  146  A    between atoms: _364  and  _366
REMARK  147  A    between atoms: _366  and  _367
REMARK  148  A    between atoms: _366  and  _369
REMARK  149  A    between atoms: _369  and  _370
REMARK  150  A    between atoms: _373  and  _375
REMARK  151  A    between atoms: _375  and  _376
REMARK  152  A    between atoms: _375  and  _378
REMARK  153  A    between atoms: _378  and  _379
REMARK  154  A    between atoms: _382  and  _384
REMARK  155  A    between atoms: _384  and  _385
REMARK  156  A    between atoms: _384  and  _387
REMARK  157  A    between atoms: _387  and  _388
REMARK  158  A    between atoms: _391  and  _393
REMARK  159  A    between atoms: _393  and  _394
REMARK  160  A    between atoms: _393  and  _396
REMARK  161  A    between atoms: _396  and  _397
REMARK  162  A    between atoms: _400  and  _402
REMARK  163  A    between atoms: _402  and  _403
REMARK  164  A    between atoms: _402  and  _405
REMARK  165  A    between atoms: _405  and  _406
REMARK  166  A    between atoms: _412  and  _414
REMARK  167  A    between atoms: _414  and  _415
REMARK  168  A    between atoms: _414  and  _417
REMARK  169  A    between atoms: _417  and  _418
REMARK  170  A    between atoms: _418  and  _419
REMARK  171  A    between atoms: _419  and  _420
REMARK  172  A    between atoms: _420  and  _421
REMARK  173  A    between atoms: _425  and  _427
REMARK  174  A    between atoms: _427  and  _428
REMARK  175  A    between atoms: _427  and  _430
REMARK  176  A    between atoms: _430  and  _431
REMARK  177  A    between atoms: _431  and  _432
REMARK  178  A    between atoms: _434  and  _436
REMARK  179  A    between atoms: _436  and  _437
REMARK  180  A    between atoms: _436  and  _439
REMARK  181  A    between atoms: _439  and  _440
REMARK  182  A    between atoms: _443  and  _445
REMARK  183  A    between atoms: _445  and  _446
REMARK  184  A    between atoms: _448  and  _450
REMARK  185  A    between atoms: _450  and  _451
REMARK  186  A    between atoms: _453  and  _455
REMARK  187  A    between atoms: _455  and  _456
REMARK  188  A    between atoms: _455  and  _458
REMARK  189  A    between atoms: _458  and  _459
REMARK  190  A    between atoms: _462  and  _464
REMARK  191  A    between atoms: _464  and  _465
REMARK  192  A    between atoms: _467  and  _469
REMARK  193  A    between atoms: _469  and  _470
REMARK  194  A    between atoms: _472  and  _474
REMARK  195  A    between atoms: _474  and  _475
REMARK  196  A    between atoms: _474  and  _477
REMARK  197  A    between atoms: _480  and  _482
REMARK  198  A    between atoms: _482  and  _483
REMARK  199  A    between atoms: _482  and  _485
REMARK  200  A    between atoms: _485  and  _486
REMARK  201  A    between atoms: _489  and  _491
REMARK  202  A    between atoms: _491  and  _492
REMARK  203  A    between atoms: _491  and  _494
REMARK  204  A    between atoms: _494  and  _495
REMARK  205  A    between atoms: _499  and  _500
REMARK  206  A    between atoms: _505  and  _507
REMARK  207  A    between atoms: _507  and  _508
REMARK  208  A    between atoms: _511  and  _513
REMARK  209  A    between atoms: _513  and  _514
REMARK  210  A    between atoms: _513  and  _516
REMARK  211  A    between atoms: _516  and  _517
REMARK  212  A    between atoms: _522  and  _524
REMARK  213  A    between atoms: _524  and  _525
REMARK  214  A    between atoms: _524  and  _527
REMARK  215  A    between atoms: _530  and  _532
REMARK  216  A    between atoms: _532  and  _533
REMARK  217  A    between atoms: _532  and  _535
REMARK  218  A    between atoms: _535  and  _536
REMARK  219  A    between atoms: _539  and  _541
REMARK  220  A    between atoms: _541  and  _542
REMARK  221  A    between atoms: _544  and  _546
REMARK  222  A    between atoms: _546  and  _547
REMARK  223  A    between atoms: _546  and  _549
REMARK  224  A    between atoms: _549  and  _550
REMARK  225  A    between atoms: _550  and  _551
REMARK  226  A    between atoms: _551  and  _552
REMARK  227  A    between atoms: _561  and  _563
REMARK  228  A    between atoms: _563  and  _564
REMARK  229  A    between atoms: _563  and  _566
REMARK  230  A    between atoms: _566  and  _567
REMARK                            x       y       z     vdW  Elec       q    Type
REMARK                         _______ _______ _______ _____ _____    ______ ____
ROOT
ATOM      1  O   HOH     1      19.694  12.143   8.789  0.00  0.00    +0.000 OA
ENDROOT
TORSDOF 0
REMARK  Name = ../refined-set-2016/1sgu/1sgu_pocket.pdb
REMARK  230 active torsions:
REMARK  status: ('A' for Active; 'I' for Inactive)
REMARK    1  A    between atoms: _1  and  _3
REMARK    2  A    between atoms: _3  and  _4
REMARK    3  A    between atoms: _3  and  _6
REMARK    4  A    between atoms: _6  and  _7
REMARK    5  A    between atoms: _7  and  _8
REMARK    6  A    between atoms: _8  and  _9
REMARK    7  A    between atoms: _18  and  _20
REMARK    8  A    between atoms: _20  and  _21
REMARK    9  A    between atoms: _20  and  _23
REMARK   10  A    between atoms: _23  and  _24
REMARK   11  A    between atoms: _27  and  _29
REMARK   12  A    between atoms: _29  and  _30
REMARK   13  A    between atoms: _29  and  _32
REMARK   14  A    between atoms: _32  and  _33
REMARK   15  A    between atoms: _36  and  _38
REMARK   16  A    between atoms: _38  and  _39
REMARK   17  A    between atoms: _38  and  _41
REMARK   18  A    between atoms: _41  and  _42
REMARK   19  A    between atoms: _45  and  _47
REMARK   20  A    between atoms: _47  and  _48
REMARK   21  A    between atoms: _47  and  _50
REMARK   22  A    between atoms: _50  and  _51
REMARK   23  A    between atoms: _54  and  _56
REMARK   24  A    between atoms: _56  and  _57
REMARK   25  A    between atoms: _59  and  _61
REMARK   26  A    between atoms: _61  and  _62
REMARK   27  A    between atoms: _65  and  _67
REMARK   28  A    between atoms: _67  and  _68
REMARK   29  A    between atoms: _67  and  _70
REMARK   30  A    between atoms: _70  and  _71
REMARK   31  A    between atoms: _74  and  _76
REMARK   32  A    between atoms: _76  and  _77
REMARK   33  A    between atoms: _76  and  _79
REMARK   34  A    between atoms: _79  and  _80
REMARK   35  A    between atoms: _83  and  _85
REMARK   36  A    between atoms: _85  and  _86
REMARK   37  A    between atoms: _85  and  _88
REMARK   38  A    between atoms: _88  and  _89
REMARK   39  A    between atoms: _92  and  _94
REMARK   40  A    between atoms: _94  and  _95
REMARK   41  A    between atoms: _94  and  _97
REMARK   42  A    between atoms: _97  and  _98
REMARK   43  A    between atoms: _101  and  _103
REMARK   44  A    between atoms: _103  and  _104
REMARK   45  A    between atoms: _103  and  _106
REMARK   46  A    between atoms: _106  and  _107
REMARK   47  A    between atoms: _113  and  _115
REMARK   48  A    between atoms: _115  and  _116
REMARK   49  A    between atoms: _115  and  _118
REMARK   50  A    between atoms: _118  and  _119
REMARK   51  A    between atoms: _119  and  _120
REMARK   52  A    between atoms: _120  and  _121
REMARK   53  A    between atoms: _121  and  _122
REMARK   54  A    between atoms: _126  and  _128
REMARK   55  A    between atoms: _128  and  _129
REMARK   56  A    between atoms: _128  and  _131
REMARK   57  A    between atoms: _131  and  _132
REMARK   58  A    between atoms: _132  and  _133
REMARK   59  A    between atoms: _135  and  _137
REMARK   60  A    between atoms: _137  and  _138
REMARK   61  A    between atoms: _137  and  _140
REMARK   62  A    between atoms: _140  and  _141
REMARK   63  A    between atoms: _144  and  _146
REMARK   64  A    between atoms: _146  and  _147
REMARK   65  A    between atoms: _149  and  _151
REMARK   66  A    between atoms: _151  and  _152
REMARK   67  A    between atoms: _154  and  _156
REMARK   68  A    between atoms: _156  and  _157
REMARK   69  A    between atoms: _156  and  _159
REMARK   70  A    between atoms: _159  and  _160
REMARK   71  A    between atoms: _163  and  _165
REMARK   72  A    between atoms: _165  and  _166
REMARK   73  A    between atoms: _168  and  _170
REMARK   74  A    between atoms: _170  and  _171
REMARK   75  A    between atoms: _173  and  _175
REMARK   76  A    between atoms: _175  and  _176
REMARK   77  A    between atoms: _175  and  _178
REMARK   78  A    between atoms: _178  and  _179
REMARK   79  A    between atoms: _185  and  _187
REMARK   80  A    between atoms: _187  and  _188
REMARK   81  A    between atoms: _187  and  _190
REMARK   82  A    between atoms: _193  and  _195
REMARK   83  A    between atoms: _195  and  _196
REMARK   84  A    between atoms: _195  and  _198
REMARK   85  A    between atoms: _201  and  _203
REMARK   86  A    between atoms: _203  and  _204
REMARK   87  A    between atoms: _203  and  _206
REMARK   88  A    between atoms: _206  and  _207
REMARK   89  A    between atoms: _211  and  _212
REMARK   90  A    between atoms: _217  and  _219
REMARK   91  A    between atoms: _219  and  _220
REMARK   92  A    between atoms: _219  and  _222
REMARK   93  A    between atoms: _222  and  _223
REMARK   94  A    between atoms: _227  and  _228
REMARK   95  A    between atoms: _233  and  _235
REMARK   96  A    between atoms: _235  and  _236
REMARK   97  A    between atoms: _239  and  _241
REMARK   98  A    between atoms: _241  and  _242
REMARK   99  A    between atoms: _241  and  _244
REMARK  100  A    between atoms: _244  and  _245
REMARK  101  A    between atoms: _250  and  _252
REMARK  102  A    between atoms: _252  and  _253
REMARK  103  A    between atoms: _252  and  _255
REMARK  104  A    between atoms: _258  and  _260
REMARK  105  A    between atoms: _260  and  _261
REMARK  106  A    between atoms: _260  and  _263
REMARK  107  A    between atoms: _263  and  _264
REMARK  108  A    between atoms: _267  and  _269
REMARK  109  A    between atoms: _269  and  _270
REMARK  110  A    between atoms: _272  and  _274
REMARK  111  A    between atoms: _274  and  _275
REMARK  112  A    between atoms: _274  and  _277
REMARK  113  A    between atoms: _277  and  _278
REMARK  114  A    between atoms: _278  and  _279
REMARK  115  A    between atoms: _279  and  _280
REMARK  116  A    between atoms: _289  and  _291
REMARK  117  A    between atoms: _291  and  _292
REMARK  118  A    between atoms: _291  and  _294
REMARK  119  A    between atoms: _294  and  _295
REMARK  120  A    between atoms: _300  and  _302
REMARK  121  A    between atoms: _302  and  _303
REMARK  122  A    between atoms: _302  and  _305
REMARK  123  A    between atoms: _305  and  _306
REMARK  124  A    between atoms: _306  and  _307
REMARK  125  A    between atoms: _307  and  _308
REMARK  126  A    between atoms: _317  and  _319
REMARK  127  A    between atoms: _319  and  _320
REMARK  128  A    between atoms: _319  and  _322
REMARK  129  A    between atoms: _322  and  _323
REMARK  130  A    between atoms: _326  and  _328
REMARK  131  A    between atoms: _328  and  _329
REMARK  132  A    between atoms: _328  and  _331
REMARK  133  A    between atoms: _331  and  _332
REMARK  134  A    between atoms: _335  and  _337
REMARK  135  A    between atoms: _337  and  _338
REMARK  136  A    between atoms: _337  and  _340
REMARK  137  A    between atoms: _340  and  _341
REMARK  138  A    between atoms: _344  and  _346
REMARK  139  A    between atoms: _346  and  _347
REMARK  140  A    between atoms: _346  and  _349
REMARK  141  A    between atoms: _349  and  _350
REMARK  142  A    between atoms: _353  and  _355
REMARK  143  A    between atoms: _355  and  _356
REMARK  144  A    between atoms: _358  and  _360
REMARK  145  A    between atoms: _360  and  _361
REMARK  146  A    between atoms: _364  and  _366
REMARK  147  A    between atoms: _366  and  _367
REMARK  148  A    between atoms: _366  and  _369
REMARK  149  A    between atoms: _369  and  _370
REMARK  150  A    between atoms: _373  and  _375
REMARK  151  A    between atoms: _375  and  _376
REMARK  152  A    between atoms: _375  and  _378
REMARK  153  A    between atoms: _378  and  _379
REMARK  154  A    between atoms: _382  and  _384
REMARK  155  A    between atoms: _384  and  _385
REMARK  156  A    between atoms: _384  and  _387
REMARK  157  A    between atoms: _387  and  _388
REMARK  158  A    between atoms: _391  and  _393
REMARK  159  A    between atoms: _393  and  _394
REMARK  160  A    between atoms: _393  and  _396
REMARK  161  A    between atoms: _396  and  _397
REMARK  162  A    between atoms: _400  and  _402
REMARK  163  A    between atoms: _402  and  _403
REMARK  164  A    between atoms: _402  and  _405
REMARK  165  A    between atoms: _405  and  _406
REMARK  166  A    between atoms: _412  and  _414
REMARK  167  A    between atoms: _414  and  _415
REMARK  168  A    between atoms: _414  and  _417
REMARK  169  A    between atoms: _417  and  _418
REMARK  170  A    between atoms: _418  and  _419
REMARK  171  A    between atoms: _419  and  _420
REMARK  172  A    between atoms: _420  and  _421
REMARK  173  A    between atoms: _425  and  _427
REMARK  174  A    between atoms: _427  and  _428
REMARK  175  A    between atoms: _427  and  _430
REMARK  176  A    between atoms: _430  and  _431
REMARK  177  A    between atoms: _431  and  _432
REMARK  178  A    between atoms: _434  and  _436
REMARK  179  A    between atoms: _436  and  _437
REMARK  180  A    between atoms: _436  and  _439
REMARK  181  A    between atoms: _439  and  _440
REMARK  182  A    between atoms: _443  and  _445
REMARK  183  A    between atoms: _445  and  _446
REMARK  184  A    between atoms: _448  and  _450
REMARK  185  A    between atoms: _450  and  _451
REMARK  186  A    between atoms: _453  and  _455
REMARK  187  A    between atoms: _455  and  _456
REMARK  188  A    between atoms: _455  and  _458
REMARK  189  A    between atoms: _458  and  _459
REMARK  190  A    between atoms: _462  and  _464
REMARK  191  A    between atoms: _464  and  _465
REMARK  192  A    between atoms: _467  and  _469
REMARK  193  A    between atoms: _469  and  _470
REMARK  194  A    between atoms: _472  and  _474
REMARK  195  A    between atoms: _474  and  _475
REMARK  196  A    between atoms: _474  and  _477
REMARK  197  A    between atoms: _480  and  _482
REMARK  198  A    between atoms: _482  and  _483
REMARK  199  A    between atoms: _482  and  _485
REMARK  200  A    between atoms: _485  and  _486
REMARK  201  A    between atoms: _489  and  _491
REMARK  202  A    between atoms: _491  and  _492
REMARK  203  A    between atoms: _491  and  _494
REMARK  204  A    between atoms: _494  and  _495
REMARK  205  A    between atoms: _499  and  _500
REMARK  206  A    between atoms: _505  and  _507
REMARK  207  A    between atoms: _507  and  _508
REMARK  208  A    between atoms: _511  and  _513
REMARK  209  A    between atoms: _513  and  _514
REMARK  210  A    between atoms: _513  and  _516
REMARK  211  A    between atoms: _516  and  _517
REMARK  212  A    between atoms: _522  and  _524
REMARK  213  A    between atoms: _524  and  _525
REMARK  214  A    between atoms: _524  and  _527
REMARK  215  A    between atoms: _530  and  _532
REMARK  216  A    between atoms: _532  and  _533
REMARK  217  A    between atoms: _532  and  _535
REMARK  218  A    between atoms: _535  and  _536
REMARK  219  A    between atoms: _539  and  _541
REMARK  220  A    between atoms: _541  and  _542
REMARK  221  A    between atoms: _544  and  _546
REMARK  222  A    between atoms: _546  and  _547
REMARK  223  A    between atoms: _546  and  _549
REMARK  224  A    between atoms: _549  and  _550
REMARK  225  A    between atoms: _550  and  _551
REMARK  226  A    between atoms: _551  and  _552
REMARK  227  A    between atoms: _561  and  _563
REMARK  228  A    between atoms: _563  and  _564
REMARK  229  A    between atoms: _563  and  _566
REMARK  230  A    between atoms: _566  and  _567
REMARK                            x       y       z     vdW  Elec       q    Type
REMARK                         _______ _______ _______ _____ _____    ______ ____
ROOT
ATOM      1  O   HOH     1      13.669  12.560  10.282  0.00  0.00    +0.000 OA
ENDROOT
TORSDOF 0
REMARK  Name = ../refined-set-2016/1sgu/1sgu_pocket.pdb
REMARK  230 active torsions:
REMARK  status: ('A' for Active; 'I' for Inactive)
REMARK    1  A    between atoms: _1  and  _3
REMARK    2  A    between atoms: _3  and  _4
REMARK    3  A    between atoms: _3  and  _6
REMARK    4  A    between atoms: _6  and  _7
REMARK    5  A    between atoms: _7  and  _8
REMARK    6  A    between atoms: _8  and  _9
REMARK    7  A    between atoms: _18  and  _20
REMARK    8  A    between atoms: _20  and  _21
REMARK    9  A    between atoms: _20  and  _23
REMARK   10  A    between atoms: _23  and  _24
REMARK   11  A    between atoms: _27  and  _29
REMARK   12  A    between atoms: _29  and  _30
REMARK   13  A    between atoms: _29  and  _32
REMARK   14  A    between atoms: _32  and  _33
REMARK   15  A    between atoms: _36  and  _38
REMARK   16  A    between atoms: _38  and  _39
REMARK   17  A    between atoms: _38  and  _41
REMARK   18  A    between atoms: _41  and  _42
REMARK   19  A    between atoms: _45  and  _47
REMARK   20  A    between atoms: _47  and  _48
REMARK   21  A    between atoms: _47  and  _50
REMARK   22  A    between atoms: _50  and  _51
REMARK   23  A    between atoms: _54  and  _56
REMARK   24  A    between atoms: _56  and  _57
REMARK   25  A    between atoms: _59  and  _61
REMARK   26  A    between atoms: _61  and  _62
REMARK   27  A    between atoms: _65  and  _67
REMARK   28  A    between atoms: _67  and  _68
REMARK   29  A    between atoms: _67  and  _70
REMARK   30  A    between atoms: _70  and  _71
REMARK   31  A    between atoms: _74  and  _76
REMARK   32  A    between atoms: _76  and  _77
REMARK   33  A    between atoms: _76  and  _79
REMARK   34  A    between atoms: _79  and  _80
REMARK   35  A    between atoms: _83  and  _85
REMARK   36  A    between atoms: _85  and  _86
REMARK   37  A    between atoms: _85  and  _88
REMARK   38  A    between atoms: _88  and  _89
REMARK   39  A    between atoms: _92  and  _94
REMARK   40  A    between atoms: _94  and  _95
REMARK   41  A    between atoms: _94  and  _97
REMARK   42  A    between atoms: _97  and  _98
REMARK   43  A    between atoms: _101  and  _103
REMARK   44  A    between atoms: _103  and  _104
REMARK   45  A    between atoms: _103  and  _106
REMARK   46  A    between atoms: _106  and  _107
REMARK   47  A    between atoms: _113  and  _115
REMARK   48  A    between atoms: _115  and  _116
REMARK   49  A    between atoms: _115  and  _118
REMARK   50  A    between atoms: _118  and  _119
REMARK   51  A    between atoms: _119  and  _120
REMARK   52  A    between atoms: _120  and  _121
REMARK   53  A    between atoms: _121  and  _122
REMARK   54  A    between atoms: _126  and  _128
REMARK   55  A    between atoms: _128  and  _129
REMARK   56  A    between atoms: _128  and  _131
REMARK   57  A    between atoms: _131  and  _132
REMARK   58  A    between atoms: _132  and  _133
REMARK   59  A    between atoms: _135  and  _137
REMARK   60  A    between atoms: _137  and  _138
REMARK   61  A    between atoms: _137  and  _140
REMARK   62  A    between atoms: _140  and  _141
REMARK   63  A    between atoms: _144  and  _146
REMARK   64  A    between atoms: _146  and  _147
REMARK   65  A    between atoms: _149  and  _151
REMARK   66  A    between atoms: _151  and  _152
REMARK   67  A    between atoms: _154  and  _156
REMARK   68  A    between atoms: _156  and  _157
REMARK   69  A    between atoms: _156  and  _159
REMARK   70  A    between atoms: _159  and  _160
REMARK   71  A    between atoms: _163  and  _165
REMARK   72  A    between atoms: _165  and  _166
REMARK   73  A    between atoms: _168  and  _170
REMARK   74  A    between atoms: _170  and  _171
REMARK   75  A    between atoms: _173  and  _175
REMARK   76  A    between atoms: _175  and  _176
REMARK   77  A    between atoms: _175  and  _178
REMARK   78  A    between atoms: _178  and  _179
REMARK   79  A    between atoms: _185  and  _187
REMARK   80  A    between atoms: _187  and  _188
REMARK   81  A    between atoms: _187  and  _190
REMARK   82  A    between atoms: _193  and  _195
REMARK   83  A    between atoms: _195  and  _196
REMARK   84  A    between atoms: _195  and  _198
REMARK   85  A    between atoms: _201  and  _203
REMARK   86  A    between atoms: _203  and  _204
REMARK   87  A    between atoms: _203  and  _206
REMARK   88  A    between atoms: _206  and  _207
REMARK   89  A    between atoms: _211  and  _212
REMARK   90  A    between atoms: _217  and  _219
REMARK   91  A    between atoms: _219  and  _220
REMARK   92  A    between atoms: _219  and  _222
REMARK   93  A    between atoms: _222  and  _223
REMARK   94  A    between atoms: _227  and  _228
REMARK   95  A    between atoms: _233  and  _235
REMARK   96  A    between atoms: _235  and  _236
REMARK   97  A    between atoms: _239  and  _241
REMARK   98  A    between atoms: _241  and  _242
REMARK   99  A    between atoms: _241  and  _244
REMARK  100  A    between atoms: _244  and  _245
REMARK  101  A    between atoms: _250  and  _252
REMARK  102  A    between atoms: _252  and  _253
REMARK  103  A    between atoms: _252  and  _255
REMARK  104  A    between atoms: _258  and  _260
REMARK  105  A    between atoms: _260  and  _261
REMARK  106  A    between atoms: _260  and  _263
REMARK  107  A    between atoms: _263  and  _264
REMARK  108  A    between atoms: _267  and  _269
REMARK  109  A    between atoms: _269  and  _270
REMARK  110  A    between atoms: _272  and  _274
REMARK  111  A    between atoms: _274  and  _275
REMARK  112  A    between atoms: _274  and  _277
REMARK  113  A    between atoms: _277  and  _278
REMARK  114  A    between atoms: _278  and  _279
REMARK  115  A    between atoms: _279  and  _280
REMARK  116  A    between atoms: _289  and  _291
REMARK  117  A    between atoms: _291  and  _292
REMARK  118  A    between atoms: _291  and  _294
REMARK  119  A    between atoms: _294  and  _295
REMARK  120  A    between atoms: _300  and  _302
REMARK  121  A    between atoms: _302  and  _303
REMARK  122  A    between atoms: _302  and  _305
REMARK  123  A    between atoms: _305  and  _306
REMARK  124  A    between atoms: _306  and  _307
REMARK  125  A    between atoms: _307  and  _308
REMARK  126  A    between atoms: _317  and  _319
REMARK  127  A    between atoms: _319  and  _320
REMARK  128  A    between atoms: _319  and  _322
REMARK  129  A    between atoms: _322  and  _323
REMARK  130  A    between atoms: _326  and  _328
REMARK  131  A    between atoms: _328  and  _329
REMARK  132  A    between atoms: _328  and  _331
REMARK  133  A    between atoms: _331  and  _332
REMARK  134  A    between atoms: _335  and  _337
REMARK  135  A    between atoms: _337  and  _338
REMARK  136  A    between atoms: _337  and  _340
REMARK  137  A    between atoms: _340  and  _341
REMARK  138  A    between atoms: _344  and  _346
REMARK  139  A    between atoms: _346  and  _347
REMARK  140  A    between atoms: _346  and  _349
REMARK  141  A    between atoms: _349  and  _350
REMARK  142  A    between atoms: _353  and  _355
REMARK  143  A    between atoms: _355  and  _356
REMARK  144  A    between atoms: _358  and  _360
REMARK  145  A    between atoms: _360  and  _361
REMARK  146  A    between atoms: _364  and  _366
REMARK  147  A    between atoms: _366  and  _367
REMARK  148  A    between atoms: _366  and  _369
REMARK  149  A    between atoms: _369  and  _370
REMARK  150  A    between atoms: _373  and  _375
REMARK  151  A    between atoms: _375  and  _376
REMARK  152  A    between atoms: _375  and  _378
REMARK  153  A    between atoms: _378  and  _379
REMARK  154  A    between atoms: _382  and  _384
REMARK  155  A    between atoms: _384  and  _385
REMARK  156  A    between atoms: _384  and  _387
REMARK  157  A    between atoms: _387  and  _388
REMARK  158  A    between atoms: _391  and  _393
REMARK  159  A    between atoms: _393  and  _394
REMARK  160  A    between atoms: _393  and  _396
REMARK  161  A    between atoms: _396  and  _397
REMARK  162  A    between atoms: _400  and  _402
REMARK  163  A    between atoms: _402  and  _403
REMARK  164  A    between atoms: _402  and  _405
REMARK  165  A    between atoms: _405  and  _406
REMARK  166  A    between atoms: _412  and  _414
REMARK  167  A    between atoms: _414  and  _415
REMARK  168  A    between atoms: _414  and  _417
REMARK  169  A    between atoms: _417  and  _418
REMARK  170  A    between atoms: _418  and  _419
REMARK  171  A    between atoms: _419  and  _420
REMARK  172  A    between atoms: _420  and  _421
REMARK  173  A    between atoms: _425  and  _427
REMARK  174  A    between atoms: _427  and  _428
REMARK  175  A    between atoms: _427  and  _430
REMARK  176  A    between atoms: _430  and  _431
REMARK  177  A    between atoms: _431  and  _432
REMARK  178  A    between atoms: _434  and  _436
REMARK  179  A    between atoms: _436  and  _437
REMARK  180  A    between atoms: _436  and  _439
REMARK  181  A    between atoms: _439  and  _440
REMARK  182  A    between atoms: _443  and  _445
REMARK  183  A    between atoms: _445  and  _446
REMARK  184  A    between atoms: _448  and  _450
REMARK  185  A    between atoms: _450  and  _451
REMARK  186  A    between atoms: _453  and  _455
REMARK  187  A    between atoms: _455  and  _456
REMARK  188  A    between atoms: _455  and  _458
REMARK  189  A    between atoms: _458  and  _459
REMARK  190  A    between atoms: _462  and  _464
REMARK  191  A    between atoms: _464  and  _465
REMARK  192  A    between atoms: _467  and  _469
REMARK  193  A    between atoms: _469  and  _470
REMARK  194  A    between atoms: _472  and  _474
REMARK  195  A    between atoms: _474  and  _475
REMARK  196  A    between atoms: _474  and  _477
REMARK  197  A    between atoms: _480  and  _482
REMARK  198  A    between atoms: _482  and  _483
REMARK  199  A    between atoms: _482  and  _485
REMARK  200  A    between atoms: _485  and  _486
REMARK  201  A    between atoms: _489  and  _491
REMARK  202  A    between atoms: _491  and  _492
REMARK  203  A    between atoms: _491  and  _494
REMARK  204  A    between atoms: _494  and  _495
REMARK  205  A    between atoms: _499  and  _500
REMARK  206  A    between atoms: _505  and  _507
REMARK  207  A    between atoms: _507  and  _508
REMARK  208  A    between atoms: _511  and  _513
REMARK  209  A    between atoms: _513  and  _514
REMARK  210  A    between atoms: _513  and  _516
REMARK  211  A    between atoms: _516  and  _517
REMARK  212  A    between atoms: _522  and  _524
REMARK  213  A    between atoms: _524  and  _525
REMARK  214  A    between atoms: _524  and  _527
REMARK  215  A    between atoms: _530  and  _532
REMARK  216  A    between atoms: _532  and  _533
REMARK  217  A    between atoms: _532  and  _535
REMARK  218  A    between atoms: _535  and  _536
REMARK  219  A    between atoms: _539  and  _541
REMARK  220  A    between atoms: _541  and  _542
REMARK  221  A    between atoms: _544  and  _546
REMARK  222  A    between atoms: _546  and  _547
REMARK  223  A    between atoms: _546  and  _549
REMARK  224  A    between atoms: _549  and  _550
REMARK  225  A    between atoms: _550  and  _551
REMARK  226  A    between atoms: _551  and  _552
REMARK  227  A    between atoms: _561  and  _563
REMARK  228  A    between atoms: _563  and  _564
REMARK  229  A    between atoms: _563  and  _566
REMARK  230  A    between atoms: _566  and  _567
REMARK                            x       y       z     vdW  Elec       q    Type
REMARK                         _______ _______ _______ _____ _____    ______ ____
ROOT
ATOM      1  O   HOH     1      20.366  -8.439   4.266  0.00  0.00    +0.000 OA
ENDROOT
TORSDOF 0
REMARK  Name = ../refined-set-2016/1sgu/1sgu_pocket.pdb
REMARK  230 active torsions:
REMARK  status: ('A' for Active; 'I' for Inactive)
REMARK    1  A    between atoms: _1  and  _3
REMARK    2  A    between atoms: _3  and  _4
REMARK    3  A    between atoms: _3  and  _6
REMARK    4  A    between atoms: _6  and  _7
REMARK    5  A    between atoms: _7  and  _8
REMARK    6  A    between atoms: _8  and  _9
REMARK    7  A    between atoms: _18  and  _20
REMARK    8  A    between atoms: _20  and  _21
REMARK    9  A    between atoms: _20  and  _23
REMARK   10  A    between atoms: _23  and  _24
REMARK   11  A    between atoms: _27  and  _29
REMARK   12  A    between atoms: _29  and  _30
REMARK   13  A    between atoms: _29  and  _32
REMARK   14  A    between atoms: _32  and  _33
REMARK   15  A    between atoms: _36  and  _38
REMARK   16  A    between atoms: _38  and  _39
REMARK   17  A    between atoms: _38  and  _41
REMARK   18  A    between atoms: _41  and  _42
REMARK   19  A    between atoms: _45  and  _47
REMARK   20  A    between atoms: _47  and  _48
REMARK   21  A    between atoms: _47  and  _50
REMARK   22  A    between atoms: _50  and  _51
REMARK   23  A    between atoms: _54  and  _56
REMARK   24  A    between atoms: _56  and  _57
REMARK   25  A    between atoms: _59  and  _61
REMARK   26  A    between atoms: _61  and  _62
REMARK   27  A    between atoms: _65  and  _67
REMARK   28  A    between atoms: _67  and  _68
REMARK   29  A    between atoms: _67  and  _70
REMARK   30  A    between atoms: _70  and  _71
REMARK   31  A    between atoms: _74  and  _76
REMARK   32  A    between atoms: _76  and  _77
REMARK   33  A    between atoms: _76  and  _79
REMARK   34  A    between atoms: _79  and  _80
REMARK   35  A    between atoms: _83  and  _85
REMARK   36  A    between atoms: _85  and  _86
REMARK   37  A    between atoms: _85  and  _88
REMARK   38  A    between atoms: _88  and  _89
REMARK   39  A    between atoms: _92  and  _94
REMARK   40  A    between atoms: _94  and  _95
REMARK   41  A    between atoms: _94  and  _97
REMARK   42  A    between atoms: _97  and  _98
REMARK   43  A    between atoms: _101  and  _103
REMARK   44  A    between atoms: _103  and  _104
REMARK   45  A    between atoms: _103  and  _106
REMARK   46  A    between atoms: _106  and  _107
REMARK   47  A    between atoms: _113  and  _115
REMARK   48  A    between atoms: _115  and  _116
REMARK   49  A    between atoms: _115  and  _118
REMARK   50  A    between atoms: _118  and  _119
REMARK   51  A    between atoms: _119  and  _120
REMARK   52  A    between atoms: _120  and  _121
REMARK   53  A    between atoms: _121  and  _122
REMARK   54  A    between atoms: _126  and  _128
REMARK   55  A    between atoms: _128  and  _129
REMARK   56  A    between atoms: _128  and  _131
REMARK   57  A    between atoms: _131  and  _132
REMARK   58  A    between atoms: _132  and  _133
REMARK   59  A    between atoms: _135  and  _137
REMARK   60  A    between atoms: _137  and  _138
REMARK   61  A    between atoms: _137  and  _140
REMARK   62  A    between atoms: _140  and  _141
REMARK   63  A    between atoms: _144  and  _146
REMARK   64  A    between atoms: _146  and  _147
REMARK   65  A    between atoms: _149  and  _151
REMARK   66  A    between atoms: _151  and  _152
REMARK   67  A    between atoms: _154  and  _156
REMARK   68  A    between atoms: _156  and  _157
REMARK   69  A    between atoms: _156  and  _159
REMARK   70  A    between atoms: _159  and  _160
REMARK   71  A    between atoms: _163  and  _165
REMARK   72  A    between atoms: _165  and  _166
REMARK   73  A    between atoms: _168  and  _170
REMARK   74  A    between atoms: _170  and  _171
REMARK   75  A    between atoms: _173  and  _175
REMARK   76  A    between atoms: _175  and  _176
REMARK   77  A    between atoms: _175  and  _178
REMARK   78  A    between atoms: _178  and  _179
REMARK   79  A    between atoms: _185  and  _187
REMARK   80  A    between atoms: _187  and  _188
REMARK   81  A    between atoms: _187  and  _190
REMARK   82  A    between atoms: _193  and  _195
REMARK   83  A    between atoms: _195  and  _196
REMARK   84  A    between atoms: _195  and  _198
REMARK   85  A    between atoms: _201  and  _203
REMARK   86  A    between atoms: _203  and  _204
REMARK   87  A    between atoms: _203  and  _206
REMARK   88  A    between atoms: _206  and  _207
REMARK   89  A    between atoms: _211  and  _212
REMARK   90  A    between atoms: _217  and  _219
REMARK   91  A    between atoms: _219  and  _220
REMARK   92  A    between atoms: _219  and  _222
REMARK   93  A    between atoms: _222  and  _223
REMARK   94  A    between atoms: _227  and  _228
REMARK   95  A    between atoms: _233  and  _235
REMARK   96  A    between atoms: _235  and  _236
REMARK   97  A    between atoms: _239  and  _241
REMARK   98  A    between atoms: _241  and  _242
REMARK   99  A    between atoms: _241  and  _244
REMARK  100  A    between atoms: _244  and  _245
REMARK  101  A    between atoms: _250  and  _252
REMARK  102  A    between atoms: _252  and  _253
REMARK  103  A    between atoms: _252  and  _255
REMARK  104  A    between atoms: _258  and  _260
REMARK  105  A    between atoms: _260  and  _261
REMARK  106  A    between atoms: _260  and  _263
REMARK  107  A    between atoms: _263  and  _264
REMARK  108  A    between atoms: _267  and  _269
REMARK  109  A    between atoms: _269  and  _270
REMARK  110  A    between atoms: _272  and  _274
REMARK  111  A    between atoms: _274  and  _275
REMARK  112  A    between atoms: _274  and  _277
REMARK  113  A    between atoms: _277  and  _278
REMARK  114  A    between atoms: _278  and  _279
REMARK  115  A    between atoms: _279  and  _280
REMARK  116  A    between atoms: _289  and  _291
REMARK  117  A    between atoms: _291  and  _292
REMARK  118  A    between atoms: _291  and  _294
REMARK  119  A    between atoms: _294  and  _295
REMARK  120  A    between atoms: _300  and  _302
REMARK  121  A    between atoms: _302  and  _303
REMARK  122  A    between atoms: _302  and  _305
REMARK  123  A    between atoms: _305  and  _306
REMARK  124  A    between atoms: _306  and  _307
REMARK  125  A    between atoms: _307  and  _308
REMARK  126  A    between atoms: _317  and  _319
REMARK  127  A    between atoms: _319  and  _320
REMARK  128  A    between atoms: _319  and  _322
REMARK  129  A    between atoms: _322  and  _323
REMARK  130  A    between atoms: _326  and  _328
REMARK  131  A    between atoms: _328  and  _329
REMARK  132  A    between atoms: _328  and  _331
REMARK  133  A    between atoms: _331  and  _332
REMARK  134  A    between atoms: _335  and  _337
REMARK  135  A    between atoms: _337  and  _338
REMARK  136  A    between atoms: _337  and  _340
REMARK  137  A    between atoms: _340  and  _341
REMARK  138  A    between atoms: _344  and  _346
REMARK  139  A    between atoms: _346  and  _347
REMARK  140  A    between atoms: _346  and  _349
REMARK  141  A    between atoms: _349  and  _350
REMARK  142  A    between atoms: _353  and  _355
REMARK  143  A    between atoms: _355  and  _356
REMARK  144  A    between atoms: _358  and  _360
REMARK  145  A    between atoms: _360  and  _361
REMARK  146  A    between atoms: _364  and  _366
REMARK  147  A    between atoms: _366  and  _367
REMARK  148  A    between atoms: _366  and  _369
REMARK  149  A    between atoms: _369  and  _370
REMARK  150  A    between atoms: _373  and  _375
REMARK  151  A    between atoms: _375  and  _376
REMARK  152  A    between atoms: _375  and  _378
REMARK  153  A    between atoms: _378  and  _379
REMARK  154  A    between atoms: _382  and  _384
REMARK  155  A    between atoms: _384  and  _385
REMARK  156  A    between atoms: _384  and  _387
REMARK  157  A    between atoms: _387  and  _388
REMARK  158  A    between atoms: _391  and  _393
REMARK  159  A    between atoms: _393  and  _394
REMARK  160  A    between atoms: _393  and  _396
REMARK  161  A    between atoms: _396  and  _397
REMARK  162  A    between atoms: _400  and  _402
REMARK  163  A    between atoms: _402  and  _403
REMARK  164  A    between atoms: _402  and  _405
REMARK  165  A    between atoms: _405  and  _406
REMARK  166  A    between atoms: _412  and  _414
REMARK  167  A    between atoms: _414  and  _415
REMARK  168  A    between atoms: _414  and  _417
REMARK  169  A    between atoms: _417  and  _418
REMARK  170  A    between atoms: _418  and  _419
REMARK  171  A    between atoms: _419  and  _420
REMARK  172  A    between atoms: _420  and  _421
REMARK  173  A    between atoms: _425  and  _427
REMARK  174  A    between atoms: _427  and  _428
REMARK  175  A    between atoms: _427  and  _430
REMARK  176  A    between atoms: _430  and  _431
REMARK  177  A    between atoms: _431  and  _432
REMARK  178  A    between atoms: _434  and  _436
REMARK  179  A    between atoms: _436  and  _437
REMARK  180  A    between atoms: _436  and  _439
REMARK  181  A    between atoms: _439  and  _440
REMARK  182  A    between atoms: _443  and  _445
REMARK  183  A    between atoms: _445  and  _446
REMARK  184  A    between atoms: _448  and  _450
REMARK  185  A    between atoms: _450  and  _451
REMARK  186  A    between atoms: _453  and  _455
REMARK  187  A    between atoms: _455  and  _456
REMARK  188  A    between atoms: _455  and  _458
REMARK  189  A    between atoms: _458  and  _459
REMARK  190  A    between atoms: _462  and  _464
REMARK  191  A    between atoms: _464  and  _465
REMARK  192  A    between atoms: _467  and  _469
REMARK  193  A    between atoms: _469  and  _470
REMARK  194  A    between atoms: _472  and  _474
REMARK  195  A    between atoms: _474  and  _475
REMARK  196  A    between atoms: _474  and  _477
REMARK  197  A    between atoms: _480  and  _482
REMARK  198  A    between atoms: _482  and  _483
REMARK  199  A    between atoms: _482  and  _485
REMARK  200  A    between atoms: _485  and  _486
REMARK  201  A    between atoms: _489  and  _491
REMARK  202  A    between atoms: _491  and  _492
REMARK  203  A    between atoms: _491  and  _494
REMARK  204  A    between atoms: _494  and  _495
REMARK  205  A    between atoms: _499  and  _500
REMARK  206  A    between atoms: _505  and  _507
REMARK  207  A    between atoms: _507  and  _508
REMARK  208  A    between atoms: _511  and  _513
REMARK  209  A    between atoms: _513  and  _514
REMARK  210  A    between atoms: _513  and  _516
REMARK  211  A    between atoms: _516  and  _517
REMARK  212  A    between atoms: _522  and  _524
REMARK  213  A    between atoms: _524  and  _525
REMARK  214  A    between atoms: _524  and  _527
REMARK  215  A    between atoms: _530  and  _532
REMARK  216  A    between atoms: _532  and  _533
REMARK  217  A    between atoms: _532  and  _535
REMARK  218  A    between atoms: _535  and  _536
REMARK  219  A    between atoms: _539  and  _541
REMARK  220  A    between atoms: _541  and  _542
REMARK  221  A    between atoms: _544  and  _546
REMARK  222  A    between atoms: _546  and  _547
REMARK  223  A    between atoms: _546  and  _549
REMARK  224  A    between atoms: _549  and  _550
REMARK  225  A    between atoms: _550  and  _551
REMARK  226  A    between atoms: _551  and  _552
REMARK  227  A    between atoms: _561  and  _563
REMARK  228  A    between atoms: _563  and  _564
REMARK  229  A    between atoms: _563  and  _566
REMARK  230  A    between atoms: _566  and  _567
REMARK                            x       y       z     vdW  Elec       q    Type
REMARK                         _______ _______ _______ _____ _____    ______ ____
ROOT
ATOM      1  O   HOH     1      20.245   5.643  13.328  0.00  0.00    +0.000 OA
ENDROOT
TORSDOF 0
REMARK  Name = ../refined-set-2016/1sgu/1sgu_pocket.pdb
REMARK  230 active torsions:
REMARK  status: ('A' for Active; 'I' for Inactive)
REMARK    1  A    between atoms: _1  and  _3
REMARK    2  A    between atoms: _3  and  _4
REMARK    3  A    between atoms: _3  and  _6
REMARK    4  A    between atoms: _6  and  _7
REMARK    5  A    between atoms: _7  and  _8
REMARK    6  A    between atoms: _8  and  _9
REMARK    7  A    between atoms: _18  and  _20
REMARK    8  A    between atoms: _20  and  _21
REMARK    9  A    between atoms: _20  and  _23
REMARK   10  A    between atoms: _23  and  _24
REMARK   11  A    between atoms: _27  and  _29
REMARK   12  A    between atoms: _29  and  _30
REMARK   13  A    between atoms: _29  and  _32
REMARK   14  A    between atoms: _32  and  _33
REMARK   15  A    between atoms: _36  and  _38
REMARK   16  A    between atoms: _38  and  _39
REMARK   17  A    between atoms: _38  and  _41
REMARK   18  A    between atoms: _41  and  _42
REMARK   19  A    between atoms: _45  and  _47
REMARK   20  A    between atoms: _47  and  _48
REMARK   21  A    between atoms: _47  and  _50
REMARK   22  A    between atoms: _50  and  _51
REMARK   23  A    between atoms: _54  and  _56
REMARK   24  A    between atoms: _56  and  _57
REMARK   25  A    between atoms: _59  and  _61
REMARK   26  A    between atoms: _61  and  _62
REMARK   27  A    between atoms: _65  and  _67
REMARK   28  A    between atoms: _67  and  _68
REMARK   29  A    between atoms: _67  and  _70
REMARK   30  A    between atoms: _70  and  _71
REMARK   31  A    between atoms: _74  and  _76
REMARK   32  A    between atoms: _76  and  _77
REMARK   33  A    between atoms: _76  and  _79
REMARK   34  A    between atoms: _79  and  _80
REMARK   35  A    between atoms: _83  and  _85
REMARK   36  A    between atoms: _85  and  _86
REMARK   37  A    between atoms: _85  and  _88
REMARK   38  A    between atoms: _88  and  _89
REMARK   39  A    between atoms: _92  and  _94
REMARK   40  A    between atoms: _94  and  _95
REMARK   41  A    between atoms: _94  and  _97
REMARK   42  A    between atoms: _97  and  _98
REMARK   43  A    between atoms: _101  and  _103
REMARK   44  A    between atoms: _103  and  _104
REMARK   45  A    between atoms: _103  and  _106
REMARK   46  A    between atoms: _106  and  _107
REMARK   47  A    between atoms: _113  and  _115
REMARK   48  A    between atoms: _115  and  _116
REMARK   49  A    between atoms: _115  and  _118
REMARK   50  A    between atoms: _118  and  _119
REMARK   51  A    between atoms: _119  and  _120
REMARK   52  A    between atoms: _120  and  _121
REMARK   53  A    between atoms: _121  and  _122
REMARK   54  A    between atoms: _126  and  _128
REMARK   55  A    between atoms: _128  and  _129
REMARK   56  A    between atoms: _128  and  _131
REMARK   57  A    between atoms: _131  and  _132
REMARK   58  A    between atoms: _132  and  _133
REMARK   59  A    between atoms: _135  and  _137
REMARK   60  A    between atoms: _137  and  _138
REMARK   61  A    between atoms: _137  and  _140
REMARK   62  A    between atoms: _140  and  _141
REMARK   63  A    between atoms: _144  and  _146
REMARK   64  A    between atoms: _146  and  _147
REMARK   65  A    between atoms: _149  and  _151
REMARK   66  A    between atoms: _151  and  _152
REMARK   67  A    between atoms: _154  and  _156
REMARK   68  A    between atoms: _156  and  _157
REMARK   69  A    between atoms: _156  and  _159
REMARK   70  A    between atoms: _159  and  _160
REMARK   71  A    between atoms: _163  and  _165
REMARK   72  A    between atoms: _165  and  _166
REMARK   73  A    between atoms: _168  and  _170
REMARK   74  A    between atoms: _170  and  _171
REMARK   75  A    between atoms: _173  and  _175
REMARK   76  A    between atoms: _175  and  _176
REMARK   77  A    between atoms: _175  and  _178
REMARK   78  A    between atoms: _178  and  _179
REMARK   79  A    between atoms: _185  and  _187
REMARK   80  A    between atoms: _187  and  _188
REMARK   81  A    between atoms: _187  and  _190
REMARK   82  A    between atoms: _193  and  _195
REMARK   83  A    between atoms: _195  and  _196
REMARK   84  A    between atoms: _195  and  _198
REMARK   85  A    between atoms: _201  and  _203
REMARK   86  A    between atoms: _203  and  _204
REMARK   87  A    between atoms: _203  and  _206
REMARK   88  A    between atoms: _206  and  _207
REMARK   89  A    between atoms: _211  and  _212
REMARK   90  A    between atoms: _217  and  _219
REMARK   91  A    between atoms: _219  and  _220
REMARK   92  A    between atoms: _219  and  _222
REMARK   93  A    between atoms: _222  and  _223
REMARK   94  A    between atoms: _227  and  _228
REMARK   95  A    between atoms: _233  and  _235
REMARK   96  A    between atoms: _235  and  _236
REMARK   97  A    between atoms: _239  and  _241
REMARK   98  A    between atoms: _241  and  _242
REMARK   99  A    between atoms: _241  and  _244
REMARK  100  A    between atoms: _244  and  _245
REMARK  101  A    between atoms: _250  and  _252
REMARK  102  A    between atoms: _252  and  _253
REMARK  103  A    between atoms: _252  and  _255
REMARK  104  A    between atoms: _258  and  _260
REMARK  105  A    between atoms: _260  and  _261
REMARK  106  A    between atoms: _260  and  _263
REMARK  107  A    between atoms: _263  and  _264
REMARK  108  A    between atoms: _267  and  _269
REMARK  109  A    between atoms: _269  and  _270
REMARK  110  A    between atoms: _272  and  _274
REMARK  111  A    between atoms: _274  and  _275
REMARK  112  A    between atoms: _274  and  _277
REMARK  113  A    between atoms: _277  and  _278
REMARK  114  A    between atoms: _278  and  _279
REMARK  115  A    between atoms: _279  and  _280
REMARK  116  A    between atoms: _289  and  _291
REMARK  117  A    between atoms: _291  and  _292
REMARK  118  A    between atoms: _291  and  _294
REMARK  119  A    between atoms: _294  and  _295
REMARK  120  A    between atoms: _300  and  _302
REMARK  121  A    between atoms: _302  and  _303
REMARK  122  A    between atoms: _302  and  _305
REMARK  123  A    between atoms: _305  and  _306
REMARK  124  A    between atoms: _306  and  _307
REMARK  125  A    between atoms: _307  and  _308
REMARK  126  A    between atoms: _317  and  _319
REMARK  127  A    between atoms: _319  and  _320
REMARK  128  A    between atoms: _319  and  _322
REMARK  129  A    between atoms: _322  and  _323
REMARK  130  A    between atoms: _326  and  _328
REMARK  131  A    between atoms: _328  and  _329
REMARK  132  A    between atoms: _328  and  _331
REMARK  133  A    between atoms: _331  and  _332
REMARK  134  A    between atoms: _335  and  _337
REMARK  135  A    between atoms: _337  and  _338
REMARK  136  A    between atoms: _337  and  _340
REMARK  137  A    between atoms: _340  and  _341
REMARK  138  A    between atoms: _344  and  _346
REMARK  139  A    between atoms: _346  and  _347
REMARK  140  A    between atoms: _346  and  _349
REMARK  141  A    between atoms: _349  and  _350
REMARK  142  A    between atoms: _353  and  _355
REMARK  143  A    between atoms: _355  and  _356
REMARK  144  A    between atoms: _358  and  _360
REMARK  145  A    between atoms: _360  and  _361
REMARK  146  A    between atoms: _364  and  _366
REMARK  147  A    between atoms: _366  and  _367
REMARK  148  A    between atoms: _366  and  _369
REMARK  149  A    between atoms: _369  and  _370
REMARK  150  A    between atoms: _373  and  _375
REMARK  151  A    between atoms: _375  and  _376
REMARK  152  A    between atoms: _375  and  _378
REMARK  153  A    between atoms: _378  and  _379
REMARK  154  A    between atoms: _382  and  _384
REMARK  155  A    between atoms: _384  and  _385
REMARK  156  A    between atoms: _384  and  _387
REMARK  157  A    between atoms: _387  and  _388
REMARK  158  A    between atoms: _391  and  _393
REMARK  159  A    between atoms: _393  and  _394
REMARK  160  A    between atoms: _393  and  _396
REMARK  161  A    between atoms: _396  and  _397
REMARK  162  A    between atoms: _400  and  _402
REMARK  163  A    between atoms: _402  and  _403
REMARK  164  A    between atoms: _402  and  _405
REMARK  165  A    between atoms: _405  and  _406
REMARK  166  A    between atoms: _412  and  _414
REMARK  167  A    between atoms: _414  and  _415
REMARK  168  A    between atoms: _414  and  _417
REMARK  169  A    between atoms: _417  and  _418
REMARK  170  A    between atoms: _418  and  _419
REMARK  171  A    between atoms: _419  and  _420
REMARK  172  A    between atoms: _420  and  _421
REMARK  173  A    between atoms: _425  and  _427
REMARK  174  A    between atoms: _427  and  _428
REMARK  175  A    between atoms: _427  and  _430
REMARK  176  A    between atoms: _430  and  _431
REMARK  177  A    between atoms: _431  and  _432
REMARK  178  A    between atoms: _434  and  _436
REMARK  179  A    between atoms: _436  and  _437
REMARK  180  A    between atoms: _436  and  _439
REMARK  181  A    between atoms: _439  and  _440
REMARK  182  A    between atoms: _443  and  _445
REMARK  183  A    between atoms: _445  and  _446
REMARK  184  A    between atoms: _448  and  _450
REMARK  185  A    between atoms: _450  and  _451
REMARK  186  A    between atoms: _453  and  _455
REMARK  187  A    between atoms: _455  and  _456
REMARK  188  A    between atoms: _455  and  _458
REMARK  189  A    between atoms: _458  and  _459
REMARK  190  A    between atoms: _462  and  _464
REMARK  191  A    between atoms: _464  and  _465
REMARK  192  A    between atoms: _467  and  _469
REMARK  193  A    between atoms: _469  and  _470
REMARK  194  A    between atoms: _472  and  _474
REMARK  195  A    between atoms: _474  and  _475
REMARK  196  A    between atoms: _474  and  _477
REMARK  197  A    between atoms: _480  and  _482
REMARK  198  A    between atoms: _482  and  _483
REMARK  199  A    between atoms: _482  and  _485
REMARK  200  A    between atoms: _485  and  _486
REMARK  201  A    between atoms: _489  and  _491
REMARK  202  A    between atoms: _491  and  _492
REMARK  203  A    between atoms: _491  and  _494
REMARK  204  A    between atoms: _494  and  _495
REMARK  205  A    between atoms: _499  and  _500
REMARK  206  A    between atoms: _505  and  _507
REMARK  207  A    between atoms: _507  and  _508
REMARK  208  A    between atoms: _511  and  _513
REMARK  209  A    between atoms: _513  and  _514
REMARK  210  A    between atoms: _513  and  _516
REMARK  211  A    between atoms: _516  and  _517
REMARK  212  A    between atoms: _522  and  _524
REMARK  213  A    between atoms: _524  and  _525
REMARK  214  A    between atoms: _524  and  _527
REMARK  215  A    between atoms: _530  and  _532
REMARK  216  A    between atoms: _532  and  _533
REMARK  217  A    between atoms: _532  and  _535
REMARK  218  A    between atoms: _535  and  _536
REMARK  219  A    between atoms: _539  and  _541
REMARK  220  A    between atoms: _541  and  _542
REMARK  221  A    between atoms: _544  and  _546
REMARK  222  A    between atoms: _546  and  _547
REMARK  223  A    between atoms: _546  and  _549
REMARK  224  A    between atoms: _549  and  _550
REMARK  225  A    between atoms: _550  and  _551
REMARK  226  A    between atoms: _551  and  _552
REMARK  227  A    between atoms: _561  and  _563
REMARK  228  A    between atoms: _563  and  _564
REMARK  229  A    between atoms: _563  and  _566
REMARK  230  A    between atoms: _566  and  _567
REMARK                            x       y       z     vdW  Elec       q    Type
REMARK                         _______ _______ _______ _____ _____    ______ ____
ROOT
ATOM      1  O   HOH     1      21.981  -5.918   6.015  0.00  0.00    +0.000 OA
ENDROOT
TORSDOF 0
REMARK  Name = ../refined-set-2016/1sgu/1sgu_pocket.pdb
REMARK  230 active torsions:
REMARK  status: ('A' for Active; 'I' for Inactive)
REMARK    1  A    between atoms: _1  and  _3
REMARK    2  A    between atoms: _3  and  _4
REMARK    3  A    between atoms: _3  and  _6
REMARK    4  A    between atoms: _6  and  _7
REMARK    5  A    between atoms: _7  and  _8
REMARK    6  A    between atoms: _8  and  _9
REMARK    7  A    between atoms: _18  and  _20
REMARK    8  A    between atoms: _20  and  _21
REMARK    9  A    between atoms: _20  and  _23
REMARK   10  A    between atoms: _23  and  _24
REMARK   11  A    between atoms: _27  and  _29
REMARK   12  A    between atoms: _29  and  _30
REMARK   13  A    between atoms: _29  and  _32
REMARK   14  A    between atoms: _32  and  _33
REMARK   15  A    between atoms: _36  and  _38
REMARK   16  A    between atoms: _38  and  _39
REMARK   17  A    between atoms: _38  and  _41
REMARK   18  A    between atoms: _41  and  _42
REMARK   19  A    between atoms: _45  and  _47
REMARK   20  A    between atoms: _47  and  _48
REMARK   21  A    between atoms: _47  and  _50
REMARK   22  A    between atoms: _50  and  _51
REMARK   23  A    between atoms: _54  and  _56
REMARK   24  A    between atoms: _56  and  _57
REMARK   25  A    between atoms: _59  and  _61
REMARK   26  A    between atoms: _61  and  _62
REMARK   27  A    between atoms: _65  and  _67
REMARK   28  A    between atoms: _67  and  _68
REMARK   29  A    between atoms: _67  and  _70
REMARK   30  A    between atoms: _70  and  _71
REMARK   31  A    between atoms: _74  and  _76
REMARK   32  A    between atoms: _76  and  _77
REMARK   33  A    between atoms: _76  and  _79
REMARK   34  A    between atoms: _79  and  _80
REMARK   35  A    between atoms: _83  and  _85
REMARK   36  A    between atoms: _85  and  _86
REMARK   37  A    between atoms: _85  and  _88
REMARK   38  A    between atoms: _88  and  _89
REMARK   39  A    between atoms: _92  and  _94
REMARK   40  A    between atoms: _94  and  _95
REMARK   41  A    between atoms: _94  and  _97
REMARK   42  A    between atoms: _97  and  _98
REMARK   43  A    between atoms: _101  and  _103
REMARK   44  A    between atoms: _103  and  _104
REMARK   45  A    between atoms: _103  and  _106
REMARK   46  A    between atoms: _106  and  _107
REMARK   47  A    between atoms: _113  and  _115
REMARK   48  A    between atoms: _115  and  _116
REMARK   49  A    between atoms: _115  and  _118
REMARK   50  A    between atoms: _118  and  _119
REMARK   51  A    between atoms: _119  and  _120
REMARK   52  A    between atoms: _120  and  _121
REMARK   53  A    between atoms: _121  and  _122
REMARK   54  A    between atoms: _126  and  _128
REMARK   55  A    between atoms: _128  and  _129
REMARK   56  A    between atoms: _128  and  _131
REMARK   57  A    between atoms: _131  and  _132
REMARK   58  A    between atoms: _132  and  _133
REMARK   59  A    between atoms: _135  and  _137
REMARK   60  A    between atoms: _137  and  _138
REMARK   61  A    between atoms: _137  and  _140
REMARK   62  A    between atoms: _140  and  _141
REMARK   63  A    between atoms: _144  and  _146
REMARK   64  A    between atoms: _146  and  _147
REMARK   65  A    between atoms: _149  and  _151
REMARK   66  A    between atoms: _151  and  _152
REMARK   67  A    between atoms: _154  and  _156
REMARK   68  A    between atoms: _156  and  _157
REMARK   69  A    between atoms: _156  and  _159
REMARK   70  A    between atoms: _159  and  _160
REMARK   71  A    between atoms: _163  and  _165
REMARK   72  A    between atoms: _165  and  _166
REMARK   73  A    between atoms: _168  and  _170
REMARK   74  A    between atoms: _170  and  _171
REMARK   75  A    between atoms: _173  and  _175
REMARK   76  A    between atoms: _175  and  _176
REMARK   77  A    between atoms: _175  and  _178
REMARK   78  A    between atoms: _178  and  _179
REMARK   79  A    between atoms: _185  and  _187
REMARK   80  A    between atoms: _187  and  _188
REMARK   81  A    between atoms: _187  and  _190
REMARK   82  A    between atoms: _193  and  _195
REMARK   83  A    between atoms: _195  and  _196
REMARK   84  A    between atoms: _195  and  _198
REMARK   85  A    between atoms: _201  and  _203
REMARK   86  A    between atoms: _203  and  _204
REMARK   87  A    between atoms: _203  and  _206
REMARK   88  A    between atoms: _206  and  _207
REMARK   89  A    between atoms: _211  and  _212
REMARK   90  A    between atoms: _217  and  _219
REMARK   91  A    between atoms: _219  and  _220
REMARK   92  A    between atoms: _219  and  _222
REMARK   93  A    between atoms: _222  and  _223
REMARK   94  A    between atoms: _227  and  _228
REMARK   95  A    between atoms: _233  and  _235
REMARK   96  A    between atoms: _235  and  _236
REMARK   97  A    between atoms: _239  and  _241
REMARK   98  A    between atoms: _241  and  _242
REMARK   99  A    between atoms: _241  and  _244
REMARK  100  A    between atoms: _244  and  _245
REMARK  101  A    between atoms: _250  and  _252
REMARK  102  A    between atoms: _252  and  _253
REMARK  103  A    between atoms: _252  and  _255
REMARK  104  A    between atoms: _258  and  _260
REMARK  105  A    between atoms: _260  and  _261
REMARK  106  A    between atoms: _260  and  _263
REMARK  107  A    between atoms: _263  and  _264
REMARK  108  A    between atoms: _267  and  _269
REMARK  109  A    between atoms: _269  and  _270
REMARK  110  A    between atoms: _272  and  _274
REMARK  111  A    between atoms: _274  and  _275
REMARK  112  A    between atoms: _274  and  _277
REMARK  113  A    between atoms: _277  and  _278
REMARK  114  A    between atoms: _278  and  _279
REMARK  115  A    between atoms: _279  and  _280
REMARK  116  A    between atoms: _289  and  _291
REMARK  117  A    between atoms: _291  and  _292
REMARK  118  A    between atoms: _291  and  _294
REMARK  119  A    between atoms: _294  and  _295
REMARK  120  A    between atoms: _300  and  _302
REMARK  121  A    between atoms: _302  and  _303
REMARK  122  A    between atoms: _302  and  _305
REMARK  123  A    between atoms: _305  and  _306
REMARK  124  A    between atoms: _306  and  _307
REMARK  125  A    between atoms: _307  and  _308
REMARK  126  A    between atoms: _317  and  _319
REMARK  127  A    between atoms: _319  and  _320
REMARK  128  A    between atoms: _319  and  _322
REMARK  129  A    between atoms: _322  and  _323
REMARK  130  A    between atoms: _326  and  _328
REMARK  131  A    between atoms: _328  and  _329
REMARK  132  A    between atoms: _328  and  _331
REMARK  133  A    between atoms: _331  and  _332
REMARK  134  A    between atoms: _335  and  _337
REMARK  135  A    between atoms: _337  and  _338
REMARK  136  A    between atoms: _337  and  _340
REMARK  137  A    between atoms: _340  and  _341
REMARK  138  A    between atoms: _344  and  _346
REMARK  139  A    between atoms: _346  and  _347
REMARK  140  A    between atoms: _346  and  _349
REMARK  141  A    between atoms: _349  and  _350
REMARK  142  A    between atoms: _353  and  _355
REMARK  143  A    between atoms: _355  and  _356
REMARK  144  A    between atoms: _358  and  _360
REMARK  145  A    between atoms: _360  and  _361
REMARK  146  A    between atoms: _364  and  _366
REMARK  147  A    between atoms: _366  and  _367
REMARK  148  A    between atoms: _366  and  _369
REMARK  149  A    between atoms: _369  and  _370
REMARK  150  A    between atoms: _373  and  _375
REMARK  151  A    between atoms: _375  and  _376
REMARK  152  A    between atoms: _375  and  _378
REMARK  153  A    between atoms: _378  and  _379
REMARK  154  A    between atoms: _382  and  _384
REMARK  155  A    between atoms: _384  and  _385
REMARK  156  A    between atoms: _384  and  _387
REMARK  157  A    between atoms: _387  and  _388
REMARK  158  A    between atoms: _391  and  _393
REMARK  159  A    between atoms: _393  and  _394
REMARK  160  A    between atoms: _393  and  _396
REMARK  161  A    between atoms: _396  and  _397
REMARK  162  A    between atoms: _400  and  _402
REMARK  163  A    between atoms: _402  and  _403
REMARK  164  A    between atoms: _402  and  _405
REMARK  165  A    between atoms: _405  and  _406
REMARK  166  A    between atoms: _412  and  _414
REMARK  167  A    between atoms: _414  and  _415
REMARK  168  A    between atoms: _414  and  _417
REMARK  169  A    between atoms: _417  and  _418
REMARK  170  A    between atoms: _418  and  _419
REMARK  171  A    between atoms: _419  and  _420
REMARK  172  A    between atoms: _420  and  _421
REMARK  173  A    between atoms: _425  and  _427
REMARK  174  A    between atoms: _427  and  _428
REMARK  175  A    between atoms: _427  and  _430
REMARK  176  A    between atoms: _430  and  _431
REMARK  177  A    between atoms: _431  and  _432
REMARK  178  A    between atoms: _434  and  _436
REMARK  179  A    between atoms: _436  and  _437
REMARK  180  A    between atoms: _436  and  _439
REMARK  181  A    between atoms: _439  and  _440
REMARK  182  A    between atoms: _443  and  _445
REMARK  183  A    between atoms: _445  and  _446
REMARK  184  A    between atoms: _448  and  _450
REMARK  185  A    between atoms: _450  and  _451
REMARK  186  A    between atoms: _453  and  _455
REMARK  187  A    between atoms: _455  and  _456
REMARK  188  A    between atoms: _455  and  _458
REMARK  189  A    between atoms: _458  and  _459
REMARK  190  A    between atoms: _462  and  _464
REMARK  191  A    between atoms: _464  and  _465
REMARK  192  A    between atoms: _467  and  _469
REMARK  193  A    between atoms: _469  and  _470
REMARK  194  A    between atoms: _472  and  _474
REMARK  195  A    between atoms: _474  and  _475
REMARK  196  A    between atoms: _474  and  _477
REMARK  197  A    between atoms: _480  and  _482
REMARK  198  A    between atoms: _482  and  _483
REMARK  199  A    between atoms: _482  and  _485
REMARK  200  A    between atoms: _485  and  _486
REMARK  201  A    between atoms: _489  and  _491
REMARK  202  A    between atoms: _491  and  _492
REMARK  203  A    between atoms: _491  and  _494
REMARK  204  A    between atoms: _494  and  _495
REMARK  205  A    between atoms: _499  and  _500
REMARK  206  A    between atoms: _505  and  _507
REMARK  207  A    between atoms: _507  and  _508
REMARK  208  A    between atoms: _511  and  _513
REMARK  209  A    between atoms: _513  and  _514
REMARK  210  A    between atoms: _513  and  _516
REMARK  211  A    between atoms: _516  and  _517
REMARK  212  A    between atoms: _522  and  _524
REMARK  213  A    between atoms: _524  and  _525
REMARK  214  A    between atoms: _524  and  _527
REMARK  215  A    between atoms: _530  and  _532
REMARK  216  A    between atoms: _532  and  _533
REMARK  217  A    between atoms: _532  and  _535
REMARK  218  A    between atoms: _535  and  _536
REMARK  219  A    between atoms: _539  and  _541
REMARK  220  A    between atoms: _541  and  _542
REMARK  221  A    between atoms: _544  and  _546
REMARK  222  A    between atoms: _546  and  _547
REMARK  223  A    between atoms: _546  and  _549
REMARK  224  A    between atoms: _549  and  _550
REMARK  225  A    between atoms: _550  and  _551
REMARK  226  A    between atoms: _551  and  _552
REMARK  227  A    between atoms: _561  and  _563
REMARK  228  A    between atoms: _563  and  _564
REMARK  229  A    between atoms: _563  and  _566
REMARK  230  A    between atoms: _566  and  _567
REMARK                            x       y       z     vdW  Elec       q    Type
REMARK                         _______ _______ _______ _____ _____    ______ ____
ROOT
ATOM      1  O   HOH     1      10.789   5.153   7.380  0.00  0.00    +0.000 OA
ENDROOT
TORSDOF 0
REMARK  Name = ../refined-set-2016/1sgu/1sgu_pocket.pdb
REMARK  230 active torsions:
REMARK  status: ('A' for Active; 'I' for Inactive)
REMARK    1  A    between atoms: _1  and  _3
REMARK    2  A    between atoms: _3  and  _4
REMARK    3  A    between atoms: _3  and  _6
REMARK    4  A    between atoms: _6  and  _7
REMARK    5  A    between atoms: _7  and  _8
REMARK    6  A    between atoms: _8  and  _9
REMARK    7  A    between atoms: _18  and  _20
REMARK    8  A    between atoms: _20  and  _21
REMARK    9  A    between atoms: _20  and  _23
REMARK   10  A    between atoms: _23  and  _24
REMARK   11  A    between atoms: _27  and  _29
REMARK   12  A    between atoms: _29  and  _30
REMARK   13  A    between atoms: _29  and  _32
REMARK   14  A    between atoms: _32  and  _33
REMARK   15  A    between atoms: _36  and  _38
REMARK   16  A    between atoms: _38  and  _39
REMARK   17  A    between atoms: _38  and  _41
REMARK   18  A    between atoms: _41  and  _42
REMARK   19  A    between atoms: _45  and  _47
REMARK   20  A    between atoms: _47  and  _48
REMARK   21  A    between atoms: _47  and  _50
REMARK   22  A    between atoms: _50  and  _51
REMARK   23  A    between atoms: _54  and  _56
REMARK   24  A    between atoms: _56  and  _57
REMARK   25  A    between atoms: _59  and  _61
REMARK   26  A    between atoms: _61  and  _62
REMARK   27  A    between atoms: _65  and  _67
REMARK   28  A    between atoms: _67  and  _68
REMARK   29  A    between atoms: _67  and  _70
REMARK   30  A    between atoms: _70  and  _71
REMARK   31  A    between atoms: _74  and  _76
REMARK   32  A    between atoms: _76  and  _77
REMARK   33  A    between atoms: _76  and  _79
REMARK   34  A    between atoms: _79  and  _80
REMARK   35  A    between atoms: _83  and  _85
REMARK   36  A    between atoms: _85  and  _86
REMARK   37  A    between atoms: _85  and  _88
REMARK   38  A    between atoms: _88  and  _89
REMARK   39  A    between atoms: _92  and  _94
REMARK   40  A    between atoms: _94  and  _95
REMARK   41  A    between atoms: _94  and  _97
REMARK   42  A    between atoms: _97  and  _98
REMARK   43  A    between atoms: _101  and  _103
REMARK   44  A    between atoms: _103  and  _104
REMARK   45  A    between atoms: _103  and  _106
REMARK   46  A    between atoms: _106  and  _107
REMARK   47  A    between atoms: _113  and  _115
REMARK   48  A    between atoms: _115  and  _116
REMARK   49  A    between atoms: _115  and  _118
REMARK   50  A    between atoms: _118  and  _119
REMARK   51  A    between atoms: _119  and  _120
REMARK   52  A    between atoms: _120  and  _121
REMARK   53  A    between atoms: _121  and  _122
REMARK   54  A    between atoms: _126  and  _128
REMARK   55  A    between atoms: _128  and  _129
REMARK   56  A    between atoms: _128  and  _131
REMARK   57  A    between atoms: _131  and  _132
REMARK   58  A    between atoms: _132  and  _133
REMARK   59  A    between atoms: _135  and  _137
REMARK   60  A    between atoms: _137  and  _138
REMARK   61  A    between atoms: _137  and  _140
REMARK   62  A    between atoms: _140  and  _141
REMARK   63  A    between atoms: _144  and  _146
REMARK   64  A    between atoms: _146  and  _147
REMARK   65  A    between atoms: _149  and  _151
REMARK   66  A    between atoms: _151  and  _152
REMARK   67  A    between atoms: _154  and  _156
REMARK   68  A    between atoms: _156  and  _157
REMARK   69  A    between atoms: _156  and  _159
REMARK   70  A    between atoms: _159  and  _160
REMARK   71  A    between atoms: _163  and  _165
REMARK   72  A    between atoms: _165  and  _166
REMARK   73  A    between atoms: _168  and  _170
REMARK   74  A    between atoms: _170  and  _171
REMARK   75  A    between atoms: _173  and  _175
REMARK   76  A    between atoms: _175  and  _176
REMARK   77  A    between atoms: _175  and  _178
REMARK   78  A    between atoms: _178  and  _179
REMARK   79  A    between atoms: _185  and  _187
REMARK   80  A    between atoms: _187  and  _188
REMARK   81  A    between atoms: _187  and  _190
REMARK   82  A    between atoms: _193  and  _195
REMARK   83  A    between atoms: _195  and  _196
REMARK   84  A    between atoms: _195  and  _198
REMARK   85  A    between atoms: _201  and  _203
REMARK   86  A    between atoms: _203  and  _204
REMARK   87  A    between atoms: _203  and  _206
REMARK   88  A    between atoms: _206  and  _207
REMARK   89  A    between atoms: _211  and  _212
REMARK   90  A    between atoms: _217  and  _219
REMARK   91  A    between atoms: _219  and  _220
REMARK   92  A    between atoms: _219  and  _222
REMARK   93  A    between atoms: _222  and  _223
REMARK   94  A    between atoms: _227  and  _228
REMARK   95  A    between atoms: _233  and  _235
REMARK   96  A    between atoms: _235  and  _236
REMARK   97  A    between atoms: _239  and  _241
REMARK   98  A    between atoms: _241  and  _242
REMARK   99  A    between atoms: _241  and  _244
REMARK  100  A    between atoms: _244  and  _245
REMARK  101  A    between atoms: _250  and  _252
REMARK  102  A    between atoms: _252  and  _253
REMARK  103  A    between atoms: _252  and  _255
REMARK  104  A    between atoms: _258  and  _260
REMARK  105  A    between atoms: _260  and  _261
REMARK  106  A    between atoms: _260  and  _263
REMARK  107  A    between atoms: _263  and  _264
REMARK  108  A    between atoms: _267  and  _269
REMARK  109  A    between atoms: _269  and  _270
REMARK  110  A    between atoms: _272  and  _274
REMARK  111  A    between atoms: _274  and  _275
REMARK  112  A    between atoms: _274  and  _277
REMARK  113  A    between atoms: _277  and  _278
REMARK  114  A    between atoms: _278  and  _279
REMARK  115  A    between atoms: _279  and  _280
REMARK  116  A    between atoms: _289  and  _291
REMARK  117  A    between atoms: _291  and  _292
REMARK  118  A    between atoms: _291  and  _294
REMARK  119  A    between atoms: _294  and  _295
REMARK  120  A    between atoms: _300  and  _302
REMARK  121  A    between atoms: _302  and  _303
REMARK  122  A    between atoms: _302  and  _305
REMARK  123  A    between atoms: _305  and  _306
REMARK  124  A    between atoms: _306  and  _307
REMARK  125  A    between atoms: _307  and  _308
REMARK  126  A    between atoms: _317  and  _319
REMARK  127  A    between atoms: _319  and  _320
REMARK  128  A    between atoms: _319  and  _322
REMARK  129  A    between atoms: _322  and  _323
REMARK  130  A    between atoms: _326  and  _328
REMARK  131  A    between atoms: _328  and  _329
REMARK  132  A    between atoms: _328  and  _331
REMARK  133  A    between atoms: _331  and  _332
REMARK  134  A    between atoms: _335  and  _337
REMARK  135  A    between atoms: _337  and  _338
REMARK  136  A    between atoms: _337  and  _340
REMARK  137  A    between atoms: _340  and  _341
REMARK  138  A    between atoms: _344  and  _346
REMARK  139  A    between atoms: _346  and  _347
REMARK  140  A    between atoms: _346  and  _349
REMARK  141  A    between atoms: _349  and  _350
REMARK  142  A    between atoms: _353  and  _355
REMARK  143  A    between atoms: _355  and  _356
REMARK  144  A    between atoms: _358  and  _360
REMARK  145  A    between atoms: _360  and  _361
REMARK  146  A    between atoms: _364  and  _366
REMARK  147  A    between atoms: _366  and  _367
REMARK  148  A    between atoms: _366  and  _369
REMARK  149  A    between atoms: _369  and  _370
REMARK  150  A    between atoms: _373  and  _375
REMARK  151  A    between atoms: _375  and  _376
REMARK  152  A    between atoms: _375  and  _378
REMARK  153  A    between atoms: _378  and  _379
REMARK  154  A    between atoms: _382  and  _384
REMARK  155  A    between atoms: _384  and  _385
REMARK  156  A    between atoms: _384  and  _387
REMARK  157  A    between atoms: _387  and  _388
REMARK  158  A    between atoms: _391  and  _393
REMARK  159  A    between atoms: _393  and  _394
REMARK  160  A    between atoms: _393  and  _396
REMARK  161  A    between atoms: _396  and  _397
REMARK  162  A    between atoms: _400  and  _402
REMARK  163  A    between atoms: _402  and  _403
REMARK  164  A    between atoms: _402  and  _405
REMARK  165  A    between atoms: _405  and  _406
REMARK  166  A    between atoms: _412  and  _414
REMARK  167  A    between atoms: _414  and  _415
REMARK  168  A    between atoms: _414  and  _417
REMARK  169  A    between atoms: _417  and  _418
REMARK  170  A    between atoms: _418  and  _419
REMARK  171  A    between atoms: _419  and  _420
REMARK  172  A    between atoms: _420  and  _421
REMARK  173  A    between atoms: _425  and  _427
REMARK  174  A    between atoms: _427  and  _428
REMARK  175  A    between atoms: _427  and  _430
REMARK  176  A    between atoms: _430  and  _431
REMARK  177  A    between atoms: _431  and  _432
REMARK  178  A    between atoms: _434  and  _436
REMARK  179  A    between atoms: _436  and  _437
REMARK  180  A    between atoms: _436  and  _439
REMARK  181  A    between atoms: _439  and  _440
REMARK  182  A    between atoms: _443  and  _445
REMARK  183  A    between atoms: _445  and  _446
REMARK  184  A    between atoms: _448  and  _450
REMARK  185  A    between atoms: _450  and  _451
REMARK  186  A    between atoms: _453  and  _455
REMARK  187  A    between atoms: _455  and  _456
REMARK  188  A    between atoms: _455  and  _458
REMARK  189  A    between atoms: _458  and  _459
REMARK  190  A    between atoms: _462  and  _464
REMARK  191  A    between atoms: _464  and  _465
REMARK  192  A    between atoms: _467  and  _469
REMARK  193  A    between atoms: _469  and  _470
REMARK  194  A    between atoms: _472  and  _474
REMARK  195  A    between atoms: _474  and  _475
REMARK  196  A    between atoms: _474  and  _477
REMARK  197  A    between atoms: _480  and  _482
REMARK  198  A    between atoms: _482  and  _483
REMARK  199  A    between atoms: _482  and  _485
REMARK  200  A    between atoms: _485  and  _486
REMARK  201  A    between atoms: _489  and  _491
REMARK  202  A    between atoms: _491  and  _492
REMARK  203  A    between atoms: _491  and  _494
REMARK  204  A    between atoms: _494  and  _495
REMARK  205  A    between atoms: _499  and  _500
REMARK  206  A    between atoms: _505  and  _507
REMARK  207  A    between atoms: _507  and  _508
REMARK  208  A    between atoms: _511  and  _513
REMARK  209  A    between atoms: _513  and  _514
REMARK  210  A    between atoms: _513  and  _516
REMARK  211  A    between atoms: _516  and  _517
REMARK  212  A    between atoms: _522  and  _524
REMARK  213  A    between atoms: _524  and  _525
REMARK  214  A    between atoms: _524  and  _527
REMARK  215  A    between atoms: _530  and  _532
REMARK  216  A    between atoms: _532  and  _533
REMARK  217  A    between atoms: _532  and  _535
REMARK  218  A    between atoms: _535  and  _536
REMARK  219  A    between atoms: _539  and  _541
REMARK  220  A    between atoms: _541  and  _542
REMARK  221  A    between atoms: _544  and  _546
REMARK  222  A    between atoms: _546  and  _547
REMARK  223  A    between atoms: _546  and  _549
REMARK  224  A    between atoms: _549  and  _550
REMARK  225  A    between atoms: _550  and  _551
REMARK  226  A    between atoms: _551  and  _552
REMARK  227  A    between atoms: _561  and  _563
REMARK  228  A    between atoms: _563  and  _564
REMARK  229  A    between atoms: _563  and  _566
REMARK  230  A    between atoms: _566  and  _567
REMARK                            x       y       z     vdW  Elec       q    Type
REMARK                         _______ _______ _______ _____ _____    ______ ____
ROOT
ATOM      1  O   HOH     1      15.184  -4.319   2.396  0.00  0.00    +0.000 OA
ENDROOT
TORSDOF 0
