REMARK  Name = ../refined-set-2016/2bmk/2bmk_pocket.pdb
REMARK  152 active torsions:
REMARK  status: ('A' for Active; 'I' for Inactive)
REMARK    1  A    between atoms: _1  and  _3
REMARK    2  A    between atoms: _3  and  _4
REMARK    3  A    between atoms: _3  and  _6
REMARK    4  A    between atoms: _9  and  _11
REMARK    5  A    between atoms: _11  and  _12
REMARK    6  A    between atoms: _11  and  _14
REMARK    7  A    between atoms: _14  and  _15
REMARK    8  A    between atoms: _20  and  _22
REMARK    9  A    between atoms: _22  and  _23
REMARK   10  A    between atoms: _22  and  _25
REMARK   11  A    between atoms: _25  and  _26
REMARK   12  A    between atoms: _31  and  _32
REMARK   13  A    between atoms: _34  and  _36
REMARK   14  A    between atoms: _36  and  _37
REMARK   15  A    between atoms: _36  and  _39
REMARK   16  A    between atoms: _39  and  _40
REMARK   17  A    between atoms: _40  and  _41
REMARK   18  A    between atoms: _43  and  _45
REMARK   19  A    between atoms: _45  and  _46
REMARK   20  A    between atoms: _45  and  _48
REMARK   21  A    between atoms: _48  and  _49
REMARK   22  A    between atoms: _54  and  _56
REMARK   23  A    between atoms: _56  and  _57
REMARK   24  A    between atoms: _56  and  _59
REMARK   25  A    between atoms: _59  and  _60
REMARK   26  A    between atoms: _65  and  _66
REMARK   27  A    between atoms: _68  and  _70
REMARK   28  A    between atoms: _70  and  _71
REMARK   29  A    between atoms: _70  and  _73
REMARK   30  A    between atoms: _73  and  _74
REMARK   31  A    between atoms: _76  and  _78
REMARK   32  A    between atoms: _78  and  _79
REMARK   33  A    between atoms: _78  and  _81
REMARK   34  A    between atoms: _81  and  _82
REMARK   35  A    between atoms: _85  and  _87
REMARK   36  A    between atoms: _87  and  _88
REMARK   37  A    between atoms: _87  and  _90
REMARK   38  A    between atoms: _90  and  _91
REMARK   39  A    between atoms: _91  and  _92
REMARK   40  A    between atoms: _97  and  _99
REMARK   41  A    between atoms: _99  and  _100
REMARK   42  A    between atoms: _99  and  _102
REMARK   43  A    between atoms: _102  and  _103
REMARK   44  A    between atoms: _103  and  _104
REMARK   45  A    between atoms: _109  and  _111
REMARK   46  A    between atoms: _111  and  _112
REMARK   47  A    between atoms: _111  and  _114
REMARK   48  A    between atoms: _114  and  _115
REMARK   49  A    between atoms: _115  and  _116
REMARK   50  A    between atoms: _116  and  _117
REMARK   51  A    between atoms: _126  and  _128
REMARK   52  A    between atoms: _128  and  _129
REMARK   53  A    between atoms: _128  and  _131
REMARK   54  A    between atoms: _131  and  _132
REMARK   55  A    between atoms: _134  and  _136
REMARK   56  A    between atoms: _136  and  _137
REMARK   57  A    between atoms: _136  and  _139
REMARK   58  A    between atoms: _139  and  _140
REMARK   59  A    between atoms: _143  and  _145
REMARK   60  A    between atoms: _145  and  _146
REMARK   61  A    between atoms: _145  and  _148
REMARK   62  A    between atoms: _148  and  _149
REMARK   63  A    between atoms: _154  and  _155
REMARK   64  A    between atoms: _157  and  _159
REMARK   65  A    between atoms: _159  and  _160
REMARK   66  A    between atoms: _159  and  _162
REMARK   67  A    between atoms: _162  and  _163
REMARK   68  A    between atoms: _169  and  _171
REMARK   69  A    between atoms: _171  and  _172
REMARK   70  A    between atoms: _171  and  _174
REMARK   71  A    between atoms: _174  and  _175
REMARK   72  A    between atoms: _180  and  _181
REMARK   73  A    between atoms: _183  and  _185
REMARK   74  A    between atoms: _185  and  _186
REMARK   75  A    between atoms: _185  and  _188
REMARK   76  A    between atoms: _188  and  _189
REMARK   77  A    between atoms: _189  and  _190
REMARK   78  A    between atoms: _192  and  _194
REMARK   79  A    between atoms: _194  and  _195
REMARK   80  A    between atoms: _194  and  _197
REMARK   81  A    between atoms: _197  and  _198
REMARK   82  A    between atoms: _200  and  _202
REMARK   83  A    between atoms: _202  and  _203
REMARK   84  A    between atoms: _202  and  _205
REMARK   85  A    between atoms: _205  and  _206
REMARK   86  A    between atoms: _216  and  _218
REMARK   87  A    between atoms: _218  and  _219
REMARK   88  A    between atoms: _218  and  _221
REMARK   89  A    between atoms: _221  and  _222
REMARK   90  A    between atoms: _225  and  _227
REMARK   91  A    between atoms: _227  and  _228
REMARK   92  A    between atoms: _227  and  _230
REMARK   93  A    between atoms: _230  and  _231
REMARK   94  A    between atoms: _234  and  _236
REMARK   95  A    between atoms: _236  and  _237
REMARK   96  A    between atoms: _236  and  _239
REMARK   97  A    between atoms: _239  and  _240
REMARK   98  A    between atoms: _240  and  _241
REMARK   99  A    between atoms: _241  and  _242
REMARK  100  A    between atoms: _251  and  _253
REMARK  101  A    between atoms: _253  and  _254
REMARK  102  A    between atoms: _253  and  _256
REMARK  103  A    between atoms: _256  and  _257
REMARK  104  A    between atoms: _262  and  _264
REMARK  105  A    between atoms: _264  and  _265
REMARK  106  A    between atoms: _264  and  _267
REMARK  107  A    between atoms: _267  and  _268
REMARK  108  A    between atoms: _273  and  _275
REMARK  109  A    between atoms: _275  and  _276
REMARK  110  A    between atoms: _275  and  _278
REMARK  111  A    between atoms: _278  and  _279
REMARK  112  A    between atoms: _282  and  _284
REMARK  113  A    between atoms: _284  and  _285
REMARK  114  A    between atoms: _284  and  _287
REMARK  115  A    between atoms: _287  and  _288
REMARK  116  A    between atoms: _288  and  _289
REMARK  117  A    between atoms: _292  and  _294
REMARK  118  A    between atoms: _294  and  _295
REMARK  119  A    between atoms: _294  and  _297
REMARK  120  A    between atoms: _297  and  _298
REMARK  121  A    between atoms: _298  and  _299
REMARK  122  A    between atoms: _299  and  _300
REMARK  123  A    between atoms: _309  and  _311
REMARK  124  A    between atoms: _311  and  _312
REMARK  125  A    between atoms: _311  and  _314
REMARK  126  A    between atoms: _314  and  _315
REMARK  127  A    between atoms: _318  and  _320
REMARK  128  A    between atoms: _320  and  _321
REMARK  129  A    between atoms: _320  and  _323
REMARK  130  A    between atoms: _323  and  _324
REMARK  131  A    between atoms: _324  and  _325
REMARK  132  A    between atoms: _325  and  _326
REMARK  133  A    between atoms: _326  and  _327
REMARK  134  A    between atoms: _331  and  _333
REMARK  135  A    between atoms: _333  and  _334
REMARK  136  A    between atoms: _336  and  _338
REMARK  137  A    between atoms: _338  and  _339
REMARK  138  A    between atoms: _338  and  _341
REMARK  139  A    between atoms: _341  and  _342
REMARK  140  A    between atoms: _347  and  _348
REMARK  141  A    between atoms: _350  and  _352
REMARK  142  A    between atoms: _352  and  _353
REMARK  143  A    between atoms: _356  and  _358
REMARK  144  A    between atoms: _358  and  _359
REMARK  145  A    between atoms: _358  and  _361
REMARK  146  A    between atoms: _361  and  _362
REMARK  147  A    between atoms: _372  and  _374
REMARK  148  A    between atoms: _374  and  _375
REMARK  149  A    between atoms: _374  and  _377
REMARK  150  A    between atoms: _377  and  _378
REMARK  151  A    between atoms: _384  and  _386
REMARK  152  A    between atoms: _386  and  _387
REMARK                            x       y       z     vdW  Elec       q    Type
REMARK                         _______ _______ _______ _____ _____    ______ ____
ROOT
ATOM      1  CA  TYR A   3      74.262  26.424  65.106  0.00  0.00    +0.153 C 
ENDROOT
BRANCH   1   4
ATOM      2  C   ASN A   2      75.607  25.436  63.326  0.00  0.00    +0.241 C 
ATOM      3  O   ASN A   2      76.379  24.918  64.124  0.00  0.00    -0.273 OA
ATOM      4  N   TYR A   3      74.565  26.167  63.703  0.00  0.00    -0.297 N 
ATOM      5  H   TYR A   3      73.944  26.570  62.973  0.00  0.00    +0.150 HD
BRANCH   2   6
ATOM      6  CA  ASN A   2      75.813  25.263  61.821  0.00  0.00    +0.158 C 
BRANCH   6   9
ATOM      7  C   VAL A   1      73.637  24.527  61.012  0.00  0.00    +0.238 C 
ATOM      8  O   VAL A   1      73.714  23.457  61.617  0.00  0.00    -0.274 OA
ATOM      9  N   ASN A   2      74.592  25.448  61.051  0.00  0.00    -0.297 N 
ATOM     10  H   ASN A   2      74.464  26.330  60.514  0.00  0.00    +0.150 HD
BRANCH   7  11
ATOM     11  CA  VAL A   1      72.423  24.862  60.149  0.00  0.00    +0.145 C 
BRANCH  11  12
ATOM     12  CB  VAL A   1      71.340  25.589  60.996  0.00  0.00    +0.025 C 
ATOM     13  CG2 VAL A   1      70.880  24.718  62.142  0.00  0.00    +0.002 C 
ATOM     14  CG1 VAL A   1      70.159  25.960  60.107  0.00  0.00    +0.002 C 
ENDBRANCH  11  12
BRANCH  11  15
ATOM     15  N   VAL A   1      71.929  23.628  59.573  0.00  0.00    -0.238 NA
ATOM     16  H   VAL A   1      71.716  22.823  60.196  0.00  0.00    +0.142 HD
ENDBRANCH  11  15
ENDBRANCH   7  11
ENDBRANCH   6   9
BRANCH   6  17
ATOM     17  CB  ASN A   2      76.869  26.249  61.325  0.00  0.00    +0.114 C 
BRANCH  17  18
ATOM     18  CG  ASN A   2      77.261  25.996  59.878  0.00  0.00    +0.222 C 
ATOM     19  ND2 ASN A   2      77.413  24.725  59.518  0.00  0.00    -0.329 N 
ATOM     20 HD21 ASN A   2      77.256  23.966  60.211  0.00  0.00    +0.145 HD
ATOM     21 HD22 ASN A   2      77.689  24.490  58.543  0.00  0.00    +0.145 HD
ATOM     22  OD1 ASN A   2      77.434  26.932  59.098  0.00  0.00    -0.275 OA
ENDBRANCH  17  18
ENDBRANCH   6  17
ENDBRANCH   2   6
ENDBRANCH   1   4
BRANCH   1  23
ATOM     23  C   TYR A   3      72.786  26.733  65.256  0.00  0.00    +0.241 C 
ATOM     24  N   MET A   4      72.310  26.714  66.493  0.00  0.00    -0.297 N 
ATOM     25  H   MET A   4      72.943  26.463  67.279  0.00  0.00    +0.150 HD
ATOM     26  O   TYR A   3      72.090  26.995  64.276  0.00  0.00    -0.273 OA
BRANCH  24  27
ATOM     27  CA  MET A   4      70.923  27.036  66.773  0.00  0.00    +0.149 C 
BRANCH  27  28
ATOM     28  C   MET A   4      70.888  27.956  67.986  0.00  0.00    +0.241 C 
ATOM     29  O   MET A   4      71.627  27.752  68.940  0.00  0.00    -0.273 OA
ATOM     30  N   HIS A   5      70.026  28.965  67.947  0.00  0.00    -0.298 N 
ATOM     31  H   HIS A   5      69.417  29.082  67.112  0.00  0.00    +0.150 HD
BRANCH  30  32
ATOM     32  CA  HIS A   5      69.914  29.912  69.049  0.00  0.00    +0.143 C 
BRANCH  32  33
ATOM     33  C   HIS A   5      68.511  29.819  69.632  0.00  0.00    +0.227 C 
ATOM     34  O   HIS A   5      67.562  29.486  68.917  0.00  0.00    -0.286 OA
ENDBRANCH  32  33
BRANCH  32  35
ATOM     35  CB  HIS A   5      70.179  31.334  68.541  0.00  0.00    +0.075 C 
BRANCH  35  36
ATOM     36  CG  HIS A   5      71.426  31.451  67.726  0.00  0.00    +0.082 A 
ATOM     37  ND1 HIS A   5      72.687  31.337  68.273  0.00  0.00    -0.227 NA
ATOM     38  CE1 HIS A   5      73.588  31.382  67.307  0.00  0.00    +0.199 A 
ATOM     39  NE2 HIS A   5      72.958  31.527  66.156  0.00  0.00    -0.221 NA
ATOM     40  CD2 HIS A   5      71.606  31.580  66.391  0.00  0.00    +0.115 A 
ENDBRANCH  35  36
ENDBRANCH  32  35
ENDBRANCH  30  32
ENDBRANCH  27  28
BRANCH  27  41
ATOM     41  CB  MET A   4      70.116  25.774  67.059  0.00  0.00    +0.041 C 
BRANCH  41  42
ATOM     42  CG  MET A   4      68.630  26.058  67.171  0.00  0.00    +0.060 C 
BRANCH  42  43
ATOM     43  SD  MET A   4      67.981  26.803  65.649  0.00  0.00    -0.139 S 
ATOM     44  CE  MET A   4      67.589  25.305  64.718  0.00  0.00    +0.069 C 
ENDBRANCH  42  43
ENDBRANCH  41  42
ENDBRANCH  27  41
ENDBRANCH  24  27
ENDBRANCH   1  23
BRANCH   1  45
ATOM     45  CB  TYR A   3      75.047  27.640  65.605  0.00  0.00    +0.055 C 
BRANCH  45  46
ATOM     46  CG  TYR A   3      76.547  27.484  65.584  0.00  0.00    -0.020 A 
ATOM     47  CD2 TYR A   3      77.205  26.748  66.566  0.00  0.00    -0.001 A 
ATOM     48  CE2 TYR A   3      78.591  26.611  66.556  0.00  0.00    +0.036 A 
ATOM     49  CZ  TYR A   3      79.329  27.212  65.553  0.00  0.00    +0.134 A 
ATOM     50  CE1 TYR A   3      78.695  27.947  64.565  0.00  0.00    +0.036 A 
ATOM     51  CD1 TYR A   3      77.309  28.078  64.587  0.00  0.00    -0.001 A 
BRANCH  49  52
ATOM     52  OH  TYR A   3      80.700  27.078  65.531  0.00  0.00    -0.506 OA
ATOM     53  HH  TYR A   3      80.989  26.527  66.301  0.00  0.00    +0.292 HD
ENDBRANCH  49  52
ENDBRANCH  45  46
ENDBRANCH   1  45
TORSDOF 21
REMARK  Name = ../refined-set-2016/2bmk/2bmk_pocket.pdb
REMARK  152 active torsions:
REMARK  status: ('A' for Active; 'I' for Inactive)
REMARK    1  A    between atoms: _1  and  _3
REMARK    2  A    between atoms: _3  and  _4
REMARK    3  A    between atoms: _3  and  _6
REMARK    4  A    between atoms: _9  and  _11
REMARK    5  A    between atoms: _11  and  _12
REMARK    6  A    between atoms: _11  and  _14
REMARK    7  A    between atoms: _14  and  _15
REMARK    8  A    between atoms: _20  and  _22
REMARK    9  A    between atoms: _22  and  _23
REMARK   10  A    between atoms: _22  and  _25
REMARK   11  A    between atoms: _25  and  _26
REMARK   12  A    between atoms: _31  and  _32
REMARK   13  A    between atoms: _34  and  _36
REMARK   14  A    between atoms: _36  and  _37
REMARK   15  A    between atoms: _36  and  _39
REMARK   16  A    between atoms: _39  and  _40
REMARK   17  A    between atoms: _40  and  _41
REMARK   18  A    between atoms: _43  and  _45
REMARK   19  A    between atoms: _45  and  _46
REMARK   20  A    between atoms: _45  and  _48
REMARK   21  A    between atoms: _48  and  _49
REMARK   22  A    between atoms: _54  and  _56
REMARK   23  A    between atoms: _56  and  _57
REMARK   24  A    between atoms: _56  and  _59
REMARK   25  A    between atoms: _59  and  _60
REMARK   26  A    between atoms: _65  and  _66
REMARK   27  A    between atoms: _68  and  _70
REMARK   28  A    between atoms: _70  and  _71
REMARK   29  A    between atoms: _70  and  _73
REMARK   30  A    between atoms: _73  and  _74
REMARK   31  A    between atoms: _76  and  _78
REMARK   32  A    between atoms: _78  and  _79
REMARK   33  A    between atoms: _78  and  _81
REMARK   34  A    between atoms: _81  and  _82
REMARK   35  A    between atoms: _85  and  _87
REMARK   36  A    between atoms: _87  and  _88
REMARK   37  A    between atoms: _87  and  _90
REMARK   38  A    between atoms: _90  and  _91
REMARK   39  A    between atoms: _91  and  _92
REMARK   40  A    between atoms: _97  and  _99
REMARK   41  A    between atoms: _99  and  _100
REMARK   42  A    between atoms: _99  and  _102
REMARK   43  A    between atoms: _102  and  _103
REMARK   44  A    between atoms: _103  and  _104
REMARK   45  A    between atoms: _109  and  _111
REMARK   46  A    between atoms: _111  and  _112
REMARK   47  A    between atoms: _111  and  _114
REMARK   48  A    between atoms: _114  and  _115
REMARK   49  A    between atoms: _115  and  _116
REMARK   50  A    between atoms: _116  and  _117
REMARK   51  A    between atoms: _126  and  _128
REMARK   52  A    between atoms: _128  and  _129
REMARK   53  A    between atoms: _128  and  _131
REMARK   54  A    between atoms: _131  and  _132
REMARK   55  A    between atoms: _134  and  _136
REMARK   56  A    between atoms: _136  and  _137
REMARK   57  A    between atoms: _136  and  _139
REMARK   58  A    between atoms: _139  and  _140
REMARK   59  A    between atoms: _143  and  _145
REMARK   60  A    between atoms: _145  and  _146
REMARK   61  A    between atoms: _145  and  _148
REMARK   62  A    between atoms: _148  and  _149
REMARK   63  A    between atoms: _154  and  _155
REMARK   64  A    between atoms: _157  and  _159
REMARK   65  A    between atoms: _159  and  _160
REMARK   66  A    between atoms: _159  and  _162
REMARK   67  A    between atoms: _162  and  _163
REMARK   68  A    between atoms: _169  and  _171
REMARK   69  A    between atoms: _171  and  _172
REMARK   70  A    between atoms: _171  and  _174
REMARK   71  A    between atoms: _174  and  _175
REMARK   72  A    between atoms: _180  and  _181
REMARK   73  A    between atoms: _183  and  _185
REMARK   74  A    between atoms: _185  and  _186
REMARK   75  A    between atoms: _185  and  _188
REMARK   76  A    between atoms: _188  and  _189
REMARK   77  A    between atoms: _189  and  _190
REMARK   78  A    between atoms: _192  and  _194
REMARK   79  A    between atoms: _194  and  _195
REMARK   80  A    between atoms: _194  and  _197
REMARK   81  A    between atoms: _197  and  _198
REMARK   82  A    between atoms: _200  and  _202
REMARK   83  A    between atoms: _202  and  _203
REMARK   84  A    between atoms: _202  and  _205
REMARK   85  A    between atoms: _205  and  _206
REMARK   86  A    between atoms: _216  and  _218
REMARK   87  A    between atoms: _218  and  _219
REMARK   88  A    between atoms: _218  and  _221
REMARK   89  A    between atoms: _221  and  _222
REMARK   90  A    between atoms: _225  and  _227
REMARK   91  A    between atoms: _227  and  _228
REMARK   92  A    between atoms: _227  and  _230
REMARK   93  A    between atoms: _230  and  _231
REMARK   94  A    between atoms: _234  and  _236
REMARK   95  A    between atoms: _236  and  _237
REMARK   96  A    between atoms: _236  and  _239
REMARK   97  A    between atoms: _239  and  _240
REMARK   98  A    between atoms: _240  and  _241
REMARK   99  A    between atoms: _241  and  _242
REMARK  100  A    between atoms: _251  and  _253
REMARK  101  A    between atoms: _253  and  _254
REMARK  102  A    between atoms: _253  and  _256
REMARK  103  A    between atoms: _256  and  _257
REMARK  104  A    between atoms: _262  and  _264
REMARK  105  A    between atoms: _264  and  _265
REMARK  106  A    between atoms: _264  and  _267
REMARK  107  A    between atoms: _267  and  _268
REMARK  108  A    between atoms: _273  and  _275
REMARK  109  A    between atoms: _275  and  _276
REMARK  110  A    between atoms: _275  and  _278
REMARK  111  A    between atoms: _278  and  _279
REMARK  112  A    between atoms: _282  and  _284
REMARK  113  A    between atoms: _284  and  _285
REMARK  114  A    between atoms: _284  and  _287
REMARK  115  A    between atoms: _287  and  _288
REMARK  116  A    between atoms: _288  and  _289
REMARK  117  A    between atoms: _292  and  _294
REMARK  118  A    between atoms: _294  and  _295
REMARK  119  A    between atoms: _294  and  _297
REMARK  120  A    between atoms: _297  and  _298
REMARK  121  A    between atoms: _298  and  _299
REMARK  122  A    between atoms: _299  and  _300
REMARK  123  A    between atoms: _309  and  _311
REMARK  124  A    between atoms: _311  and  _312
REMARK  125  A    between atoms: _311  and  _314
REMARK  126  A    between atoms: _314  and  _315
REMARK  127  A    between atoms: _318  and  _320
REMARK  128  A    between atoms: _320  and  _321
REMARK  129  A    between atoms: _320  and  _323
REMARK  130  A    between atoms: _323  and  _324
REMARK  131  A    between atoms: _324  and  _325
REMARK  132  A    between atoms: _325  and  _326
REMARK  133  A    between atoms: _326  and  _327
REMARK  134  A    between atoms: _331  and  _333
REMARK  135  A    between atoms: _333  and  _334
REMARK  136  A    between atoms: _336  and  _338
REMARK  137  A    between atoms: _338  and  _339
REMARK  138  A    between atoms: _338  and  _341
REMARK  139  A    between atoms: _341  and  _342
REMARK  140  A    between atoms: _347  and  _348
REMARK  141  A    between atoms: _350  and  _352
REMARK  142  A    between atoms: _352  and  _353
REMARK  143  A    between atoms: _356  and  _358
REMARK  144  A    between atoms: _358  and  _359
REMARK  145  A    between atoms: _358  and  _361
REMARK  146  A    between atoms: _361  and  _362
REMARK  147  A    between atoms: _372  and  _374
REMARK  148  A    between atoms: _374  and  _375
REMARK  149  A    between atoms: _374  and  _377
REMARK  150  A    between atoms: _377  and  _378
REMARK  151  A    between atoms: _384  and  _386
REMARK  152  A    between atoms: _386  and  _387
REMARK                            x       y       z     vdW  Elec       q    Type
REMARK                         _______ _______ _______ _____ _____    ______ ____
ROOT
ATOM      1  C   TYR A   1      74.483  29.976  71.314  0.00  0.00    +0.239 C 
ATOM      2  O   TYR A   1      75.080  29.281  72.129  0.00  0.00    -0.274 OA
ATOM      3  N   SER A   2      74.701  29.917  70.006  0.00  0.00    -0.295 N 
ATOM      4  H   SER A   2      74.164  30.545  69.375  0.00  0.00    +0.150 HD
ENDROOT
BRANCH   1   5
ATOM      5  CA  TYR A   1      73.419  30.957  71.764  0.00  0.00    +0.149 C 
BRANCH   5   6
ATOM      6  N   TYR A   1      72.845  30.503  73.027  0.00  0.00    -0.238 NA
ATOM      7  H   TYR A   1      73.477  30.221  73.803  0.00  0.00    +0.142 HD
ENDBRANCH   5   6
BRANCH   5   8
ATOM      8  CB  TYR A   1      74.004  32.371  71.890  0.00  0.00    +0.053 C 
BRANCH   8   9
ATOM      9  CG  TYR A   1      75.203  32.503  72.793  0.00  0.00    -0.020 A 
ATOM     10  CD2 TYR A   1      75.041  32.718  74.160  0.00  0.00    -0.001 A 
ATOM     11  CE2 TYR A   1      76.132  32.830  75.010  0.00  0.00    +0.036 A 
ATOM     12  CZ  TYR A   1      77.412  32.728  74.498  0.00  0.00    +0.134 A 
ATOM     13  CE1 TYR A   1      77.612  32.515  73.132  0.00  0.00    +0.036 A 
ATOM     14  CD1 TYR A   1      76.504  32.404  72.289  0.00  0.00    -0.001 A 
BRANCH  12  15
ATOM     15  OH  TYR A   1      78.481  32.833  75.361  0.00  0.00    -0.506 OA
ATOM     16  HH  TYR A   1      79.325  32.740  74.852  0.00  0.00    +0.292 HD
ENDBRANCH  12  15
ENDBRANCH   8   9
ENDBRANCH   5   8
ENDBRANCH   1   5
BRANCH   3  17
ATOM     17  CA  SER A   2      75.672  28.997  69.430  0.00  0.00    +0.178 C 
BRANCH  17  18
ATOM     18  C   SER A   2      75.424  27.573  69.899  0.00  0.00    +0.243 C 
ATOM     19  O   SER A   2      76.343  26.872  70.336  0.00  0.00    -0.273 OA
ATOM     20  N   THR A   3      74.155  27.178  69.836  0.00  0.00    -0.296 N 
ATOM     21  H   THR A   3      73.438  27.865  69.528  0.00  0.00    +0.150 HD
BRANCH  20  22
ATOM     22  CA  THR A   3      73.722  25.833  70.177  0.00  0.00    +0.164 C 
BRANCH  22  23
ATOM     23  C   THR A   3      73.667  25.413  71.633  0.00  0.00    +0.229 C 
ATOM     24  O   THR A   3      72.673  24.826  72.058  0.00  0.00    -0.286 OA
ENDBRANCH  22  23
BRANCH  22  25
ATOM     25  CB  THR A   3      74.582  24.783  69.432  0.00  0.00    +0.136 C 
ATOM     26  CG2 THR A   3      74.085  23.369  69.720  0.00  0.00    +0.034 C 
BRANCH  25  27
ATOM     27  OG1 THR A   3      74.511  25.025  68.022  0.00  0.00    -0.382 OA
ATOM     28  HG1 THR A   3      75.061  24.354  67.545  0.00  0.00    +0.210 HD
ENDBRANCH  25  27
ENDBRANCH  22  25
ENDBRANCH  20  22
ENDBRANCH  17  18
BRANCH  17  29
ATOM     29  CB  SER A   2      77.093  29.432  69.771  0.00  0.00    +0.166 C 
BRANCH  29  30
ATOM     30  OG  SER A   2      77.351  30.679  69.163  0.00  0.00    -0.380 OA
ATOM     31  H   SER A   2      76.706  31.350  69.501  0.00  0.00    +0.211 HD
ENDBRANCH  29  30
ENDBRANCH  17  29
ENDBRANCH   3  17
TORSDOF 13
REMARK  Name = ../refined-set-2016/2bmk/2bmk_pocket.pdb
REMARK  152 active torsions:
REMARK  status: ('A' for Active; 'I' for Inactive)
REMARK    1  A    between atoms: _1  and  _3
REMARK    2  A    between atoms: _3  and  _4
REMARK    3  A    between atoms: _3  and  _6
REMARK    4  A    between atoms: _9  and  _11
REMARK    5  A    between atoms: _11  and  _12
REMARK    6  A    between atoms: _11  and  _14
REMARK    7  A    between atoms: _14  and  _15
REMARK    8  A    between atoms: _20  and  _22
REMARK    9  A    between atoms: _22  and  _23
REMARK   10  A    between atoms: _22  and  _25
REMARK   11  A    between atoms: _25  and  _26
REMARK   12  A    between atoms: _31  and  _32
REMARK   13  A    between atoms: _34  and  _36
REMARK   14  A    between atoms: _36  and  _37
REMARK   15  A    between atoms: _36  and  _39
REMARK   16  A    between atoms: _39  and  _40
REMARK   17  A    between atoms: _40  and  _41
REMARK   18  A    between atoms: _43  and  _45
REMARK   19  A    between atoms: _45  and  _46
REMARK   20  A    between atoms: _45  and  _48
REMARK   21  A    between atoms: _48  and  _49
REMARK   22  A    between atoms: _54  and  _56
REMARK   23  A    between atoms: _56  and  _57
REMARK   24  A    between atoms: _56  and  _59
REMARK   25  A    between atoms: _59  and  _60
REMARK   26  A    between atoms: _65  and  _66
REMARK   27  A    between atoms: _68  and  _70
REMARK   28  A    between atoms: _70  and  _71
REMARK   29  A    between atoms: _70  and  _73
REMARK   30  A    between atoms: _73  and  _74
REMARK   31  A    between atoms: _76  and  _78
REMARK   32  A    between atoms: _78  and  _79
REMARK   33  A    between atoms: _78  and  _81
REMARK   34  A    between atoms: _81  and  _82
REMARK   35  A    between atoms: _85  and  _87
REMARK   36  A    between atoms: _87  and  _88
REMARK   37  A    between atoms: _87  and  _90
REMARK   38  A    between atoms: _90  and  _91
REMARK   39  A    between atoms: _91  and  _92
REMARK   40  A    between atoms: _97  and  _99
REMARK   41  A    between atoms: _99  and  _100
REMARK   42  A    between atoms: _99  and  _102
REMARK   43  A    between atoms: _102  and  _103
REMARK   44  A    between atoms: _103  and  _104
REMARK   45  A    between atoms: _109  and  _111
REMARK   46  A    between atoms: _111  and  _112
REMARK   47  A    between atoms: _111  and  _114
REMARK   48  A    between atoms: _114  and  _115
REMARK   49  A    between atoms: _115  and  _116
REMARK   50  A    between atoms: _116  and  _117
REMARK   51  A    between atoms: _126  and  _128
REMARK   52  A    between atoms: _128  and  _129
REMARK   53  A    between atoms: _128  and  _131
REMARK   54  A    between atoms: _131  and  _132
REMARK   55  A    between atoms: _134  and  _136
REMARK   56  A    between atoms: _136  and  _137
REMARK   57  A    between atoms: _136  and  _139
REMARK   58  A    between atoms: _139  and  _140
REMARK   59  A    between atoms: _143  and  _145
REMARK   60  A    between atoms: _145  and  _146
REMARK   61  A    between atoms: _145  and  _148
REMARK   62  A    between atoms: _148  and  _149
REMARK   63  A    between atoms: _154  and  _155
REMARK   64  A    between atoms: _157  and  _159
REMARK   65  A    between atoms: _159  and  _160
REMARK   66  A    between atoms: _159  and  _162
REMARK   67  A    between atoms: _162  and  _163
REMARK   68  A    between atoms: _169  and  _171
REMARK   69  A    between atoms: _171  and  _172
REMARK   70  A    between atoms: _171  and  _174
REMARK   71  A    between atoms: _174  and  _175
REMARK   72  A    between atoms: _180  and  _181
REMARK   73  A    between atoms: _183  and  _185
REMARK   74  A    between atoms: _185  and  _186
REMARK   75  A    between atoms: _185  and  _188
REMARK   76  A    between atoms: _188  and  _189
REMARK   77  A    between atoms: _189  and  _190
REMARK   78  A    between atoms: _192  and  _194
REMARK   79  A    between atoms: _194  and  _195
REMARK   80  A    between atoms: _194  and  _197
REMARK   81  A    between atoms: _197  and  _198
REMARK   82  A    between atoms: _200  and  _202
REMARK   83  A    between atoms: _202  and  _203
REMARK   84  A    between atoms: _202  and  _205
REMARK   85  A    between atoms: _205  and  _206
REMARK   86  A    between atoms: _216  and  _218
REMARK   87  A    between atoms: _218  and  _219
REMARK   88  A    between atoms: _218  and  _221
REMARK   89  A    between atoms: _221  and  _222
REMARK   90  A    between atoms: _225  and  _227
REMARK   91  A    between atoms: _227  and  _228
REMARK   92  A    between atoms: _227  and  _230
REMARK   93  A    between atoms: _230  and  _231
REMARK   94  A    between atoms: _234  and  _236
REMARK   95  A    between atoms: _236  and  _237
REMARK   96  A    between atoms: _236  and  _239
REMARK   97  A    between atoms: _239  and  _240
REMARK   98  A    between atoms: _240  and  _241
REMARK   99  A    between atoms: _241  and  _242
REMARK  100  A    between atoms: _251  and  _253
REMARK  101  A    between atoms: _253  and  _254
REMARK  102  A    between atoms: _253  and  _256
REMARK  103  A    between atoms: _256  and  _257
REMARK  104  A    between atoms: _262  and  _264
REMARK  105  A    between atoms: _264  and  _265
REMARK  106  A    between atoms: _264  and  _267
REMARK  107  A    between atoms: _267  and  _268
REMARK  108  A    between atoms: _273  and  _275
REMARK  109  A    between atoms: _275  and  _276
REMARK  110  A    between atoms: _275  and  _278
REMARK  111  A    between atoms: _278  and  _279
REMARK  112  A    between atoms: _282  and  _284
REMARK  113  A    between atoms: _284  and  _285
REMARK  114  A    between atoms: _284  and  _287
REMARK  115  A    between atoms: _287  and  _288
REMARK  116  A    between atoms: _288  and  _289
REMARK  117  A    between atoms: _292  and  _294
REMARK  118  A    between atoms: _294  and  _295
REMARK  119  A    between atoms: _294  and  _297
REMARK  120  A    between atoms: _297  and  _298
REMARK  121  A    between atoms: _298  and  _299
REMARK  122  A    between atoms: _299  and  _300
REMARK  123  A    between atoms: _309  and  _311
REMARK  124  A    between atoms: _311  and  _312
REMARK  125  A    between atoms: _311  and  _314
REMARK  126  A    between atoms: _314  and  _315
REMARK  127  A    between atoms: _318  and  _320
REMARK  128  A    between atoms: _320  and  _321
REMARK  129  A    between atoms: _320  and  _323
REMARK  130  A    between atoms: _323  and  _324
REMARK  131  A    between atoms: _324  and  _325
REMARK  132  A    between atoms: _325  and  _326
REMARK  133  A    between atoms: _326  and  _327
REMARK  134  A    between atoms: _331  and  _333
REMARK  135  A    between atoms: _333  and  _334
REMARK  136  A    between atoms: _336  and  _338
REMARK  137  A    between atoms: _338  and  _339
REMARK  138  A    between atoms: _338  and  _341
REMARK  139  A    between atoms: _341  and  _342
REMARK  140  A    between atoms: _347  and  _348
REMARK  141  A    between atoms: _350  and  _352
REMARK  142  A    between atoms: _352  and  _353
REMARK  143  A    between atoms: _356  and  _358
REMARK  144  A    between atoms: _358  and  _359
REMARK  145  A    between atoms: _358  and  _361
REMARK  146  A    between atoms: _361  and  _362
REMARK  147  A    between atoms: _372  and  _374
REMARK  148  A    between atoms: _374  and  _375
REMARK  149  A    between atoms: _374  and  _377
REMARK  150  A    between atoms: _377  and  _378
REMARK  151  A    between atoms: _384  and  _386
REMARK  152  A    between atoms: _386  and  _387
REMARK                            x       y       z     vdW  Elec       q    Type
REMARK                         _______ _______ _______ _____ _____    ______ ____
ROOT
ATOM      1  CA  ARG A   3      71.610  32.628  61.407  0.00  0.00    +0.149 C 
ENDROOT
BRANCH   1   2
ATOM      2  C   ARG A   3      72.716  32.051  60.565  0.00  0.00    +0.241 C 
ATOM      3  N   SER A   4      72.592  30.765  60.267  0.00  0.00    -0.295 N 
ATOM      4  H   SER A   4      71.758  30.243  60.605  0.00  0.00    +0.150 HD
ATOM      5  O   ARG A   3      73.662  32.743  60.208  0.00  0.00    -0.273 OA
BRANCH   3   6
ATOM      6  CA  SER A   4      73.593  30.070  59.480  0.00  0.00    +0.178 C 
BRANCH   6   7
ATOM      7  C   SER A   4      73.442  30.419  58.006  0.00  0.00    +0.243 C 
ATOM      8  N   THR A   5      72.204  30.684  57.591  0.00  0.00    -0.295 N 
ATOM      9  H   THR A   5      71.428  30.628  58.281  0.00  0.00    +0.150 HD
ATOM     10  O   SER A   4      74.422  30.456  57.270  0.00  0.00    -0.273 OA
BRANCH   8  11
ATOM     11  CA  THR A   5      71.886  31.049  56.213  0.00  0.00    +0.176 C 
BRANCH  11  12
ATOM     12  C   THR A   5      70.891  32.207  56.193  0.00  0.00    +0.243 C 
ATOM     13  O   THR A   5      69.977  32.249  57.009  0.00  0.00    -0.273 OA
ATOM     14  N   TYR A   6      71.081  33.150  55.270  0.00  0.00    -0.298 N 
ATOM     15  H   TYR A   6      71.902  33.082  54.635  0.00  0.00    +0.150 HD
BRANCH  14  16
ATOM     16  CA  TYR A   6      70.164  34.273  55.132  0.00  0.00    +0.141 C 
BRANCH  16  17
ATOM     17  C   TYR A   6      69.013  33.780  54.271  0.00  0.00    +0.227 C 
ATOM     18  O   TYR A   6      69.225  33.054  53.304  0.00  0.00    -0.286 OA
ENDBRANCH  16  17
BRANCH  16  19
ATOM     19  CB  TYR A   6      70.831  35.468  54.432  0.00  0.00    +0.054 C 
BRANCH  19  20
ATOM     20  CG  TYR A   6      71.727  36.295  55.326  0.00  0.00    -0.020 A 
ATOM     21  CD2 TYR A   6      71.188  37.086  56.339  0.00  0.00    -0.001 A 
ATOM     22  CE2 TYR A   6      71.999  37.825  57.177  0.00  0.00    +0.036 A 
ATOM     23  CZ  TYR A   6      73.373  37.780  57.009  0.00  0.00    +0.134 A 
ATOM     24  CE1 TYR A   6      73.936  37.005  56.008  0.00  0.00    +0.036 A 
ATOM     25  CD1 TYR A   6      73.115  36.269  55.175  0.00  0.00    -0.001 A 
BRANCH  23  26
ATOM     26  OH  TYR A   6      74.179  38.501  57.855  0.00  0.00    -0.506 OA
ATOM     27  HH  TYR A   6      75.127  38.363  57.604  0.00  0.00    +0.292 HD
ENDBRANCH  23  26
ENDBRANCH  19  20
ENDBRANCH  16  19
ENDBRANCH  14  16
ENDBRANCH  11  12
BRANCH  11  28
ATOM     28  CB  THR A   5      71.244  29.866  55.454  0.00  0.00    +0.137 C 
ATOM     29  CG2 THR A   5      70.606  30.332  54.153  0.00  0.00    +0.034 C 
BRANCH  28  30
ATOM     30  OG1 THR A   5      72.242  28.885  55.161  0.00  0.00    -0.382 OA
ATOM     31  HG1 THR A   5      71.827  28.129  54.675  0.00  0.00    +0.210 HD
ENDBRANCH  28  30
ENDBRANCH  11  28
ENDBRANCH   8  11
ENDBRANCH   6   7
BRANCH   6  32
ATOM     32  CB  SER A   4      73.454  28.566  59.712  0.00  0.00    +0.166 C 
BRANCH  32  33
ATOM     33  OG  SER A   4      74.529  27.863  59.129  0.00  0.00    -0.380 OA
ATOM     34  H   SER A   4      74.544  28.034  58.154  0.00  0.00    +0.211 HD
ENDBRANCH  32  33
ENDBRANCH   6  32
ENDBRANCH   3   6
ENDBRANCH   1   2
BRANCH   1  36
ATOM     35  C   GLN A   2      69.734  31.279  62.129  0.00  0.00    +0.241 C 
ATOM     36  N   ARG A   3      71.039  31.519  62.165  0.00  0.00    -0.297 N 
ATOM     37  H   ARG A   3      71.660  30.912  62.738  0.00  0.00    +0.150 HD
ATOM     38  O   GLN A   2      68.939  31.995  61.510  0.00  0.00    -0.273 OA
BRANCH  35  39
ATOM     39  CA  GLN A   2      69.239  30.076  62.917  0.00  0.00    +0.149 C 
BRANCH  39  42
ATOM     40  C   GLN A   1      67.951  30.251  64.968  0.00  0.00    +0.238 C 
ATOM     41  O   GLN A   1      68.822  29.690  65.619  0.00  0.00    -0.274 OA
ATOM     42  N   GLN A   2      68.059  30.475  63.666  0.00  0.00    -0.297 N 
ATOM     43  H   GLN A   2      67.279  30.949  63.167  0.00  0.00    +0.150 HD
BRANCH  40  44
ATOM     44  CA  GLN A   1      66.681  30.754  65.632  0.00  0.00    +0.145 C 
BRANCH  44  45
ATOM     45  N   GLN A   1      66.281  29.869  66.708  0.00  0.00    -0.238 NA
ATOM     46  H   GLN A   1      67.009  29.328  67.217  0.00  0.00    +0.142 HD
ENDBRANCH  44  45
BRANCH  44  47
ATOM     47  CB  GLN A   1      66.922  32.166  66.197  0.00  0.00    +0.036 C 
BRANCH  47  48
ATOM     48  CG  GLN A   1      67.273  33.216  65.152  0.00  0.00    +0.087 C 
BRANCH  48  49
ATOM     49  CD  GLN A   1      67.950  34.437  65.760  0.00  0.00    +0.219 C 
ATOM     50  NE2 GLN A   1      69.012  34.206  66.519  0.00  0.00    -0.329 N 
ATOM     51 HE21 GLN A   1      69.522  35.000  66.956  0.00  0.00    +0.145 HD
ATOM     52 HE22 GLN A   1      69.336  33.230  66.678  0.00  0.00    +0.145 HD
ATOM     53  OE1 GLN A   1      67.526  35.575  65.541  0.00  0.00    -0.275 OA
ENDBRANCH  48  49
ENDBRANCH  47  48
ENDBRANCH  44  47
ENDBRANCH  40  44
ENDBRANCH  39  42
BRANCH  39  54
ATOM     54  CB  GLN A   2      68.904  28.924  61.955  0.00  0.00    +0.039 C 
BRANCH  54  55
ATOM     55  CG  GLN A   2      67.963  29.262  60.776  0.00  0.00    +0.087 C 
BRANCH  55  56
ATOM     56  CD  GLN A   2      68.679  29.943  59.623  0.00  0.00    +0.219 C 
ATOM     57  OE1 GLN A   2      69.858  29.712  59.403  0.00  0.00    -0.275 OA
ATOM     58  NE2 GLN A   2      67.959  30.779  58.874  0.00  0.00    -0.329 N 
ATOM     59 HE21 GLN A   2      66.957  30.946  59.098  0.00  0.00    +0.145 HD
ATOM     60 HE22 GLN A   2      68.399  31.264  58.066  0.00  0.00    +0.145 HD
ENDBRANCH  55  56
ENDBRANCH  54  55
ENDBRANCH  39  54
ENDBRANCH  35  39
ENDBRANCH   1  36
BRANCH   1  61
ATOM     61  CB  ARG A   3      72.207  33.685  62.325  0.00  0.00    +0.033 C 
BRANCH  61  62
ATOM     62  CG  ARG A   3      71.281  34.172  63.401  0.00  0.00    +0.045 C 
BRANCH  62  63
ATOM     63  CD  ARG A   3      72.079  34.934  64.425  0.00  0.00    +0.174 C 
BRANCH  63  64
ATOM     64  NE  ARG A   3      71.440  34.864  65.719  0.00  0.00    -0.265 N 
ATOM     65  CZ  ARG A   3      72.099  34.830  66.865  0.00  0.00    +0.342 C 
ATOM     66  NH2 ARG A   3      71.422  34.758  68.003  0.00  0.00    -0.292 N 
ATOM     67 HH21 ARG A   3      71.931  34.731  68.910  0.00  0.00    +0.255 HD
ATOM     68 HH22 ARG A   3      70.383  34.729  67.989  0.00  0.00    +0.255 HD
ATOM     69  NH1 ARG A   3      73.424  34.860  66.863  0.00  0.00    -0.292 N 
ATOM     70 HH11 ARG A   3      73.946  34.833  67.762  0.00  0.00    +0.255 HD
ATOM     71 HH12 ARG A   3      73.942  34.910  65.962  0.00  0.00    +0.255 HD
ATOM     72  HE  ARG A   3      70.401  34.839  65.751  0.00  0.00    +0.259 HD
ENDBRANCH  63  64
ENDBRANCH  62  63
ENDBRANCH  61  62
ENDBRANCH   1  61
TORSDOF 29
REMARK  Name = ../refined-set-2016/2bmk/2bmk_pocket.pdb
REMARK  152 active torsions:
REMARK  status: ('A' for Active; 'I' for Inactive)
REMARK    1  A    between atoms: _1  and  _3
REMARK    2  A    between atoms: _3  and  _4
REMARK    3  A    between atoms: _3  and  _6
REMARK    4  A    between atoms: _9  and  _11
REMARK    5  A    between atoms: _11  and  _12
REMARK    6  A    between atoms: _11  and  _14
REMARK    7  A    between atoms: _14  and  _15
REMARK    8  A    between atoms: _20  and  _22
REMARK    9  A    between atoms: _22  and  _23
REMARK   10  A    between atoms: _22  and  _25
REMARK   11  A    between atoms: _25  and  _26
REMARK   12  A    between atoms: _31  and  _32
REMARK   13  A    between atoms: _34  and  _36
REMARK   14  A    between atoms: _36  and  _37
REMARK   15  A    between atoms: _36  and  _39
REMARK   16  A    between atoms: _39  and  _40
REMARK   17  A    between atoms: _40  and  _41
REMARK   18  A    between atoms: _43  and  _45
REMARK   19  A    between atoms: _45  and  _46
REMARK   20  A    between atoms: _45  and  _48
REMARK   21  A    between atoms: _48  and  _49
REMARK   22  A    between atoms: _54  and  _56
REMARK   23  A    between atoms: _56  and  _57
REMARK   24  A    between atoms: _56  and  _59
REMARK   25  A    between atoms: _59  and  _60
REMARK   26  A    between atoms: _65  and  _66
REMARK   27  A    between atoms: _68  and  _70
REMARK   28  A    between atoms: _70  and  _71
REMARK   29  A    between atoms: _70  and  _73
REMARK   30  A    between atoms: _73  and  _74
REMARK   31  A    between atoms: _76  and  _78
REMARK   32  A    between atoms: _78  and  _79
REMARK   33  A    between atoms: _78  and  _81
REMARK   34  A    between atoms: _81  and  _82
REMARK   35  A    between atoms: _85  and  _87
REMARK   36  A    between atoms: _87  and  _88
REMARK   37  A    between atoms: _87  and  _90
REMARK   38  A    between atoms: _90  and  _91
REMARK   39  A    between atoms: _91  and  _92
REMARK   40  A    between atoms: _97  and  _99
REMARK   41  A    between atoms: _99  and  _100
REMARK   42  A    between atoms: _99  and  _102
REMARK   43  A    between atoms: _102  and  _103
REMARK   44  A    between atoms: _103  and  _104
REMARK   45  A    between atoms: _109  and  _111
REMARK   46  A    between atoms: _111  and  _112
REMARK   47  A    between atoms: _111  and  _114
REMARK   48  A    between atoms: _114  and  _115
REMARK   49  A    between atoms: _115  and  _116
REMARK   50  A    between atoms: _116  and  _117
REMARK   51  A    between atoms: _126  and  _128
REMARK   52  A    between atoms: _128  and  _129
REMARK   53  A    between atoms: _128  and  _131
REMARK   54  A    between atoms: _131  and  _132
REMARK   55  A    between atoms: _134  and  _136
REMARK   56  A    between atoms: _136  and  _137
REMARK   57  A    between atoms: _136  and  _139
REMARK   58  A    between atoms: _139  and  _140
REMARK   59  A    between atoms: _143  and  _145
REMARK   60  A    between atoms: _145  and  _146
REMARK   61  A    between atoms: _145  and  _148
REMARK   62  A    between atoms: _148  and  _149
REMARK   63  A    between atoms: _154  and  _155
REMARK   64  A    between atoms: _157  and  _159
REMARK   65  A    between atoms: _159  and  _160
REMARK   66  A    between atoms: _159  and  _162
REMARK   67  A    between atoms: _162  and  _163
REMARK   68  A    between atoms: _169  and  _171
REMARK   69  A    between atoms: _171  and  _172
REMARK   70  A    between atoms: _171  and  _174
REMARK   71  A    between atoms: _174  and  _175
REMARK   72  A    between atoms: _180  and  _181
REMARK   73  A    between atoms: _183  and  _185
REMARK   74  A    between atoms: _185  and  _186
REMARK   75  A    between atoms: _185  and  _188
REMARK   76  A    between atoms: _188  and  _189
REMARK   77  A    between atoms: _189  and  _190
REMARK   78  A    between atoms: _192  and  _194
REMARK   79  A    between atoms: _194  and  _195
REMARK   80  A    between atoms: _194  and  _197
REMARK   81  A    between atoms: _197  and  _198
REMARK   82  A    between atoms: _200  and  _202
REMARK   83  A    between atoms: _202  and  _203
REMARK   84  A    between atoms: _202  and  _205
REMARK   85  A    between atoms: _205  and  _206
REMARK   86  A    between atoms: _216  and  _218
REMARK   87  A    between atoms: _218  and  _219
REMARK   88  A    between atoms: _218  and  _221
REMARK   89  A    between atoms: _221  and  _222
REMARK   90  A    between atoms: _225  and  _227
REMARK   91  A    between atoms: _227  and  _228
REMARK   92  A    between atoms: _227  and  _230
REMARK   93  A    between atoms: _230  and  _231
REMARK   94  A    between atoms: _234  and  _236
REMARK   95  A    between atoms: _236  and  _237
REMARK   96  A    between atoms: _236  and  _239
REMARK   97  A    between atoms: _239  and  _240
REMARK   98  A    between atoms: _240  and  _241
REMARK   99  A    between atoms: _241  and  _242
REMARK  100  A    between atoms: _251  and  _253
REMARK  101  A    between atoms: _253  and  _254
REMARK  102  A    between atoms: _253  and  _256
REMARK  103  A    between atoms: _256  and  _257
REMARK  104  A    between atoms: _262  and  _264
REMARK  105  A    between atoms: _264  and  _265
REMARK  106  A    between atoms: _264  and  _267
REMARK  107  A    between atoms: _267  and  _268
REMARK  108  A    between atoms: _273  and  _275
REMARK  109  A    between atoms: _275  and  _276
REMARK  110  A    between atoms: _275  and  _278
REMARK  111  A    between atoms: _278  and  _279
REMARK  112  A    between atoms: _282  and  _284
REMARK  113  A    between atoms: _284  and  _285
REMARK  114  A    between atoms: _284  and  _287
REMARK  115  A    between atoms: _287  and  _288
REMARK  116  A    between atoms: _288  and  _289
REMARK  117  A    between atoms: _292  and  _294
REMARK  118  A    between atoms: _294  and  _295
REMARK  119  A    between atoms: _294  and  _297
REMARK  120  A    between atoms: _297  and  _298
REMARK  121  A    between atoms: _298  and  _299
REMARK  122  A    between atoms: _299  and  _300
REMARK  123  A    between atoms: _309  and  _311
REMARK  124  A    between atoms: _311  and  _312
REMARK  125  A    between atoms: _311  and  _314
REMARK  126  A    between atoms: _314  and  _315
REMARK  127  A    between atoms: _318  and  _320
REMARK  128  A    between atoms: _320  and  _321
REMARK  129  A    between atoms: _320  and  _323
REMARK  130  A    between atoms: _323  and  _324
REMARK  131  A    between atoms: _324  and  _325
REMARK  132  A    between atoms: _325  and  _326
REMARK  133  A    between atoms: _326  and  _327
REMARK  134  A    between atoms: _331  and  _333
REMARK  135  A    between atoms: _333  and  _334
REMARK  136  A    between atoms: _336  and  _338
REMARK  137  A    between atoms: _338  and  _339
REMARK  138  A    between atoms: _338  and  _341
REMARK  139  A    between atoms: _341  and  _342
REMARK  140  A    between atoms: _347  and  _348
REMARK  141  A    between atoms: _350  and  _352
REMARK  142  A    between atoms: _352  and  _353
REMARK  143  A    between atoms: _356  and  _358
REMARK  144  A    between atoms: _358  and  _359
REMARK  145  A    between atoms: _358  and  _361
REMARK  146  A    between atoms: _361  and  _362
REMARK  147  A    between atoms: _372  and  _374
REMARK  148  A    between atoms: _374  and  _375
REMARK  149  A    between atoms: _374  and  _377
REMARK  150  A    between atoms: _377  and  _378
REMARK  151  A    between atoms: _384  and  _386
REMARK  152  A    between atoms: _386  and  _387
REMARK                            x       y       z     vdW  Elec       q    Type
REMARK                         _______ _______ _______ _____ _____    ______ ____
ROOT
ATOM      1  CB  PHE A   1      68.068  35.384  60.560  0.00  0.00    +0.051 C 
ENDROOT
BRANCH   1   2
ATOM      2  CG  PHE A   1      69.508  35.824  60.464  0.00  0.00    -0.020 A 
ATOM      3  CD2 PHE A   1      69.967  36.894  61.238  0.00  0.00    -0.004 A 
ATOM      4  CE2 PHE A   1      71.298  37.313  61.163  0.00  0.00    -0.000 A 
ATOM      5  CZ  PHE A   1      72.185  36.662  60.305  0.00  0.00    -0.000 A 
ATOM      6  CE1 PHE A   1      71.736  35.594  59.527  0.00  0.00    -0.000 A 
ATOM      7  CD1 PHE A   1      70.404  35.181  59.612  0.00  0.00    -0.004 A 
ENDBRANCH   1   2
BRANCH   1   8
ATOM      8  CA  PHE A   1      67.633  34.392  59.473  0.00  0.00    +0.137 C 
BRANCH   8   9
ATOM      9  N   PHE A   1      67.733  34.996  58.149  0.00  0.00    -0.239 NA
ATOM     10  H   PHE A   1      68.116  35.958  58.049  0.00  0.00    +0.142 HD
ENDBRANCH   8   9
BRANCH   8  11
ATOM     11  C   PHE A   1      66.154  34.045  59.676  0.00  0.00    +0.224 C 
ATOM     12  O   PHE A   1      65.280  34.680  59.081  0.00  0.00    -0.287 OA
ENDBRANCH   8  11
ENDBRANCH   1   8
TORSDOF 4
REMARK  Name = ../refined-set-2016/2bmk/2bmk_pocket.pdb
REMARK  152 active torsions:
REMARK  status: ('A' for Active; 'I' for Inactive)
REMARK    1  A    between atoms: _1  and  _3
REMARK    2  A    between atoms: _3  and  _4
REMARK    3  A    between atoms: _3  and  _6
REMARK    4  A    between atoms: _9  and  _11
REMARK    5  A    between atoms: _11  and  _12
REMARK    6  A    between atoms: _11  and  _14
REMARK    7  A    between atoms: _14  and  _15
REMARK    8  A    between atoms: _20  and  _22
REMARK    9  A    between atoms: _22  and  _23
REMARK   10  A    between atoms: _22  and  _25
REMARK   11  A    between atoms: _25  and  _26
REMARK   12  A    between atoms: _31  and  _32
REMARK   13  A    between atoms: _34  and  _36
REMARK   14  A    between atoms: _36  and  _37
REMARK   15  A    between atoms: _36  and  _39
REMARK   16  A    between atoms: _39  and  _40
REMARK   17  A    between atoms: _40  and  _41
REMARK   18  A    between atoms: _43  and  _45
REMARK   19  A    between atoms: _45  and  _46
REMARK   20  A    between atoms: _45  and  _48
REMARK   21  A    between atoms: _48  and  _49
REMARK   22  A    between atoms: _54  and  _56
REMARK   23  A    between atoms: _56  and  _57
REMARK   24  A    between atoms: _56  and  _59
REMARK   25  A    between atoms: _59  and  _60
REMARK   26  A    between atoms: _65  and  _66
REMARK   27  A    between atoms: _68  and  _70
REMARK   28  A    between atoms: _70  and  _71
REMARK   29  A    between atoms: _70  and  _73
REMARK   30  A    between atoms: _73  and  _74
REMARK   31  A    between atoms: _76  and  _78
REMARK   32  A    between atoms: _78  and  _79
REMARK   33  A    between atoms: _78  and  _81
REMARK   34  A    between atoms: _81  and  _82
REMARK   35  A    between atoms: _85  and  _87
REMARK   36  A    between atoms: _87  and  _88
REMARK   37  A    between atoms: _87  and  _90
REMARK   38  A    between atoms: _90  and  _91
REMARK   39  A    between atoms: _91  and  _92
REMARK   40  A    between atoms: _97  and  _99
REMARK   41  A    between atoms: _99  and  _100
REMARK   42  A    between atoms: _99  and  _102
REMARK   43  A    between atoms: _102  and  _103
REMARK   44  A    between atoms: _103  and  _104
REMARK   45  A    between atoms: _109  and  _111
REMARK   46  A    between atoms: _111  and  _112
REMARK   47  A    between atoms: _111  and  _114
REMARK   48  A    between atoms: _114  and  _115
REMARK   49  A    between atoms: _115  and  _116
REMARK   50  A    between atoms: _116  and  _117
REMARK   51  A    between atoms: _126  and  _128
REMARK   52  A    between atoms: _128  and  _129
REMARK   53  A    between atoms: _128  and  _131
REMARK   54  A    between atoms: _131  and  _132
REMARK   55  A    between atoms: _134  and  _136
REMARK   56  A    between atoms: _136  and  _137
REMARK   57  A    between atoms: _136  and  _139
REMARK   58  A    between atoms: _139  and  _140
REMARK   59  A    between atoms: _143  and  _145
REMARK   60  A    between atoms: _145  and  _146
REMARK   61  A    between atoms: _145  and  _148
REMARK   62  A    between atoms: _148  and  _149
REMARK   63  A    between atoms: _154  and  _155
REMARK   64  A    between atoms: _157  and  _159
REMARK   65  A    between atoms: _159  and  _160
REMARK   66  A    between atoms: _159  and  _162
REMARK   67  A    between atoms: _162  and  _163
REMARK   68  A    between atoms: _169  and  _171
REMARK   69  A    between atoms: _171  and  _172
REMARK   70  A    between atoms: _171  and  _174
REMARK   71  A    between atoms: _174  and  _175
REMARK   72  A    between atoms: _180  and  _181
REMARK   73  A    between atoms: _183  and  _185
REMARK   74  A    between atoms: _185  and  _186
REMARK   75  A    between atoms: _185  and  _188
REMARK   76  A    between atoms: _188  and  _189
REMARK   77  A    between atoms: _189  and  _190
REMARK   78  A    between atoms: _192  and  _194
REMARK   79  A    between atoms: _194  and  _195
REMARK   80  A    between atoms: _194  and  _197
REMARK   81  A    between atoms: _197  and  _198
REMARK   82  A    between atoms: _200  and  _202
REMARK   83  A    between atoms: _202  and  _203
REMARK   84  A    between atoms: _202  and  _205
REMARK   85  A    between atoms: _205  and  _206
REMARK   86  A    between atoms: _216  and  _218
REMARK   87  A    between atoms: _218  and  _219
REMARK   88  A    between atoms: _218  and  _221
REMARK   89  A    between atoms: _221  and  _222
REMARK   90  A    between atoms: _225  and  _227
REMARK   91  A    between atoms: _227  and  _228
REMARK   92  A    between atoms: _227  and  _230
REMARK   93  A    between atoms: _230  and  _231
REMARK   94  A    between atoms: _234  and  _236
REMARK   95  A    between atoms: _236  and  _237
REMARK   96  A    between atoms: _236  and  _239
REMARK   97  A    between atoms: _239  and  _240
REMARK   98  A    between atoms: _240  and  _241
REMARK   99  A    between atoms: _241  and  _242
REMARK  100  A    between atoms: _251  and  _253
REMARK  101  A    between atoms: _253  and  _254
REMARK  102  A    between atoms: _253  and  _256
REMARK  103  A    between atoms: _256  and  _257
REMARK  104  A    between atoms: _262  and  _264
REMARK  105  A    between atoms: _264  and  _265
REMARK  106  A    between atoms: _264  and  _267
REMARK  107  A    between atoms: _267  and  _268
REMARK  108  A    between atoms: _273  and  _275
REMARK  109  A    between atoms: _275  and  _276
REMARK  110  A    between atoms: _275  and  _278
REMARK  111  A    between atoms: _278  and  _279
REMARK  112  A    between atoms: _282  and  _284
REMARK  113  A    between atoms: _284  and  _285
REMARK  114  A    between atoms: _284  and  _287
REMARK  115  A    between atoms: _287  and  _288
REMARK  116  A    between atoms: _288  and  _289
REMARK  117  A    between atoms: _292  and  _294
REMARK  118  A    between atoms: _294  and  _295
REMARK  119  A    between atoms: _294  and  _297
REMARK  120  A    between atoms: _297  and  _298
REMARK  121  A    between atoms: _298  and  _299
REMARK  122  A    between atoms: _299  and  _300
REMARK  123  A    between atoms: _309  and  _311
REMARK  124  A    between atoms: _311  and  _312
REMARK  125  A    between atoms: _311  and  _314
REMARK  126  A    between atoms: _314  and  _315
REMARK  127  A    between atoms: _318  and  _320
REMARK  128  A    between atoms: _320  and  _321
REMARK  129  A    between atoms: _320  and  _323
REMARK  130  A    between atoms: _323  and  _324
REMARK  131  A    between atoms: _324  and  _325
REMARK  132  A    between atoms: _325  and  _326
REMARK  133  A    between atoms: _326  and  _327
REMARK  134  A    between atoms: _331  and  _333
REMARK  135  A    between atoms: _333  and  _334
REMARK  136  A    between atoms: _336  and  _338
REMARK  137  A    between atoms: _338  and  _339
REMARK  138  A    between atoms: _338  and  _341
REMARK  139  A    between atoms: _341  and  _342
REMARK  140  A    between atoms: _347  and  _348
REMARK  141  A    between atoms: _350  and  _352
REMARK  142  A    between atoms: _352  and  _353
REMARK  143  A    between atoms: _356  and  _358
REMARK  144  A    between atoms: _358  and  _359
REMARK  145  A    between atoms: _358  and  _361
REMARK  146  A    between atoms: _361  and  _362
REMARK  147  A    between atoms: _372  and  _374
REMARK  148  A    between atoms: _374  and  _375
REMARK  149  A    between atoms: _374  and  _377
REMARK  150  A    between atoms: _377  and  _378
REMARK  151  A    between atoms: _384  and  _386
REMARK  152  A    between atoms: _386  and  _387
REMARK                            x       y       z     vdW  Elec       q    Type
REMARK                         _______ _______ _______ _____ _____    ______ ____
ROOT
ATOM      1  C   TYR A   1      73.396  45.688  63.632  0.00  0.00    +0.239 C 
ATOM      2  O   TYR A   1      73.403  45.654  64.859  0.00  0.00    -0.274 OA
ATOM      3  N   MET A   2      72.282  45.899  62.940  0.00  0.00    -0.297 N 
ATOM      4  H   MET A   2      72.321  45.941  61.902  0.00  0.00    +0.150 HD
ENDROOT
BRANCH   1   5
ATOM      5  CA  TYR A   1      74.701  45.460  62.855  0.00  0.00    +0.149 C 
BRANCH   5   6
ATOM      6  N   TYR A   1      75.714  45.844  63.829  0.00  0.00    -0.238 NA
ATOM      7  H   TYR A   1      76.147  45.092  64.402  0.00  0.00    +0.142 HD
ENDBRANCH   5   6
BRANCH   5   8
ATOM      8  CB  TYR A   1      74.780  43.951  62.559  0.00  0.00    +0.053 C 
BRANCH   8   9
ATOM      9  CG  TYR A   1      75.854  43.451  61.614  0.00  0.00    -0.020 A 
ATOM     10  CD2 TYR A   1      77.146  43.987  61.613  0.00  0.00    -0.001 A 
ATOM     11  CE2 TYR A   1      78.154  43.437  60.811  0.00  0.00    +0.036 A 
ATOM     12  CZ  TYR A   1      77.860  42.337  60.004  0.00  0.00    +0.134 A 
ATOM     13  CE1 TYR A   1      76.583  41.796  59.988  0.00  0.00    +0.036 A 
ATOM     14  CD1 TYR A   1      75.596  42.356  60.784  0.00  0.00    -0.001 A 
BRANCH  12  15
ATOM     15  OH  TYR A   1      78.835  41.757  59.230  0.00  0.00    -0.506 OA
ATOM     16  HH  TYR A   1      78.562  41.788  58.279  0.00  0.00    +0.292 HD
ENDBRANCH  12  15
ENDBRANCH   8   9
ENDBRANCH   5   8
ENDBRANCH   1   5
BRANCH   3  17
ATOM     17  CA  MET A   2      71.004  46.072  63.623  0.00  0.00    +0.149 C 
BRANCH  17  18
ATOM     18  C   MET A   2      69.964  45.255  62.873  0.00  0.00    +0.241 C 
ATOM     19  N   SER A   3      69.108  44.556  63.608  0.00  0.00    -0.296 N 
ATOM     20  H   SER A   3      69.185  44.580  64.645  0.00  0.00    +0.150 HD
ATOM     21  O   MET A   2      69.931  45.266  61.643  0.00  0.00    -0.273 OA
BRANCH  19  22
ATOM     22  CA  SER A   3      68.060  43.755  62.984  0.00  0.00    +0.166 C 
BRANCH  22  23
ATOM     23  C   SER A   3      66.666  44.259  63.337  0.00  0.00    +0.229 C 
ATOM     24  O   SER A   3      66.452  44.931  64.357  0.00  0.00    -0.286 OA
ENDBRANCH  22  23
BRANCH  22  25
ATOM     25  CB  SER A   3      68.164  42.291  63.420  0.00  0.00    +0.165 C 
BRANCH  25  26
ATOM     26  OG  SER A   3      68.795  41.494  62.444  0.00  0.00    -0.380 OA
ATOM     27  H   SER A   3      68.274  41.531  61.603  0.00  0.00    +0.211 HD
ENDBRANCH  25  26
ENDBRANCH  22  25
ENDBRANCH  19  22
ENDBRANCH  17  18
BRANCH  17  28
ATOM     28  CB  MET A   2      70.547  47.540  63.633  0.00  0.00    +0.041 C 
BRANCH  28  29
ATOM     29  CG  MET A   2      71.466  48.536  64.335  0.00  0.00    +0.060 C 
BRANCH  29  30
ATOM     30  SD  MET A   2      71.684  48.227  66.096  0.00  0.00    -0.139 S 
ATOM     31  CE  MET A   2      69.977  48.290  66.693  0.00  0.00    +0.069 C 
ENDBRANCH  29  30
ENDBRANCH  28  29
ENDBRANCH  17  28
ENDBRANCH   3  17
TORSDOF 14
REMARK  Name = ../refined-set-2016/2bmk/2bmk_pocket.pdb
REMARK  152 active torsions:
REMARK  status: ('A' for Active; 'I' for Inactive)
REMARK    1  A    between atoms: _1  and  _3
REMARK    2  A    between atoms: _3  and  _4
REMARK    3  A    between atoms: _3  and  _6
REMARK    4  A    between atoms: _9  and  _11
REMARK    5  A    between atoms: _11  and  _12
REMARK    6  A    between atoms: _11  and  _14
REMARK    7  A    between atoms: _14  and  _15
REMARK    8  A    between atoms: _20  and  _22
REMARK    9  A    between atoms: _22  and  _23
REMARK   10  A    between atoms: _22  and  _25
REMARK   11  A    between atoms: _25  and  _26
REMARK   12  A    between atoms: _31  and  _32
REMARK   13  A    between atoms: _34  and  _36
REMARK   14  A    between atoms: _36  and  _37
REMARK   15  A    between atoms: _36  and  _39
REMARK   16  A    between atoms: _39  and  _40
REMARK   17  A    between atoms: _40  and  _41
REMARK   18  A    between atoms: _43  and  _45
REMARK   19  A    between atoms: _45  and  _46
REMARK   20  A    between atoms: _45  and  _48
REMARK   21  A    between atoms: _48  and  _49
REMARK   22  A    between atoms: _54  and  _56
REMARK   23  A    between atoms: _56  and  _57
REMARK   24  A    between atoms: _56  and  _59
REMARK   25  A    between atoms: _59  and  _60
REMARK   26  A    between atoms: _65  and  _66
REMARK   27  A    between atoms: _68  and  _70
REMARK   28  A    between atoms: _70  and  _71
REMARK   29  A    between atoms: _70  and  _73
REMARK   30  A    between atoms: _73  and  _74
REMARK   31  A    between atoms: _76  and  _78
REMARK   32  A    between atoms: _78  and  _79
REMARK   33  A    between atoms: _78  and  _81
REMARK   34  A    between atoms: _81  and  _82
REMARK   35  A    between atoms: _85  and  _87
REMARK   36  A    between atoms: _87  and  _88
REMARK   37  A    between atoms: _87  and  _90
REMARK   38  A    between atoms: _90  and  _91
REMARK   39  A    between atoms: _91  and  _92
REMARK   40  A    between atoms: _97  and  _99
REMARK   41  A    between atoms: _99  and  _100
REMARK   42  A    between atoms: _99  and  _102
REMARK   43  A    between atoms: _102  and  _103
REMARK   44  A    between atoms: _103  and  _104
REMARK   45  A    between atoms: _109  and  _111
REMARK   46  A    between atoms: _111  and  _112
REMARK   47  A    between atoms: _111  and  _114
REMARK   48  A    between atoms: _114  and  _115
REMARK   49  A    between atoms: _115  and  _116
REMARK   50  A    between atoms: _116  and  _117
REMARK   51  A    between atoms: _126  and  _128
REMARK   52  A    between atoms: _128  and  _129
REMARK   53  A    between atoms: _128  and  _131
REMARK   54  A    between atoms: _131  and  _132
REMARK   55  A    between atoms: _134  and  _136
REMARK   56  A    between atoms: _136  and  _137
REMARK   57  A    between atoms: _136  and  _139
REMARK   58  A    between atoms: _139  and  _140
REMARK   59  A    between atoms: _143  and  _145
REMARK   60  A    between atoms: _145  and  _146
REMARK   61  A    between atoms: _145  and  _148
REMARK   62  A    between atoms: _148  and  _149
REMARK   63  A    between atoms: _154  and  _155
REMARK   64  A    between atoms: _157  and  _159
REMARK   65  A    between atoms: _159  and  _160
REMARK   66  A    between atoms: _159  and  _162
REMARK   67  A    between atoms: _162  and  _163
REMARK   68  A    between atoms: _169  and  _171
REMARK   69  A    between atoms: _171  and  _172
REMARK   70  A    between atoms: _171  and  _174
REMARK   71  A    between atoms: _174  and  _175
REMARK   72  A    between atoms: _180  and  _181
REMARK   73  A    between atoms: _183  and  _185
REMARK   74  A    between atoms: _185  and  _186
REMARK   75  A    between atoms: _185  and  _188
REMARK   76  A    between atoms: _188  and  _189
REMARK   77  A    between atoms: _189  and  _190
REMARK   78  A    between atoms: _192  and  _194
REMARK   79  A    between atoms: _194  and  _195
REMARK   80  A    between atoms: _194  and  _197
REMARK   81  A    between atoms: _197  and  _198
REMARK   82  A    between atoms: _200  and  _202
REMARK   83  A    between atoms: _202  and  _203
REMARK   84  A    between atoms: _202  and  _205
REMARK   85  A    between atoms: _205  and  _206
REMARK   86  A    between atoms: _216  and  _218
REMARK   87  A    between atoms: _218  and  _219
REMARK   88  A    between atoms: _218  and  _221
REMARK   89  A    between atoms: _221  and  _222
REMARK   90  A    between atoms: _225  and  _227
REMARK   91  A    between atoms: _227  and  _228
REMARK   92  A    between atoms: _227  and  _230
REMARK   93  A    between atoms: _230  and  _231
REMARK   94  A    between atoms: _234  and  _236
REMARK   95  A    between atoms: _236  and  _237
REMARK   96  A    between atoms: _236  and  _239
REMARK   97  A    between atoms: _239  and  _240
REMARK   98  A    between atoms: _240  and  _241
REMARK   99  A    between atoms: _241  and  _242
REMARK  100  A    between atoms: _251  and  _253
REMARK  101  A    between atoms: _253  and  _254
REMARK  102  A    between atoms: _253  and  _256
REMARK  103  A    between atoms: _256  and  _257
REMARK  104  A    between atoms: _262  and  _264
REMARK  105  A    between atoms: _264  and  _265
REMARK  106  A    between atoms: _264  and  _267
REMARK  107  A    between atoms: _267  and  _268
REMARK  108  A    between atoms: _273  and  _275
REMARK  109  A    between atoms: _275  and  _276
REMARK  110  A    between atoms: _275  and  _278
REMARK  111  A    between atoms: _278  and  _279
REMARK  112  A    between atoms: _282  and  _284
REMARK  113  A    between atoms: _284  and  _285
REMARK  114  A    between atoms: _284  and  _287
REMARK  115  A    between atoms: _287  and  _288
REMARK  116  A    between atoms: _288  and  _289
REMARK  117  A    between atoms: _292  and  _294
REMARK  118  A    between atoms: _294  and  _295
REMARK  119  A    between atoms: _294  and  _297
REMARK  120  A    between atoms: _297  and  _298
REMARK  121  A    between atoms: _298  and  _299
REMARK  122  A    between atoms: _299  and  _300
REMARK  123  A    between atoms: _309  and  _311
REMARK  124  A    between atoms: _311  and  _312
REMARK  125  A    between atoms: _311  and  _314
REMARK  126  A    between atoms: _314  and  _315
REMARK  127  A    between atoms: _318  and  _320
REMARK  128  A    between atoms: _320  and  _321
REMARK  129  A    between atoms: _320  and  _323
REMARK  130  A    between atoms: _323  and  _324
REMARK  131  A    between atoms: _324  and  _325
REMARK  132  A    between atoms: _325  and  _326
REMARK  133  A    between atoms: _326  and  _327
REMARK  134  A    between atoms: _331  and  _333
REMARK  135  A    between atoms: _333  and  _334
REMARK  136  A    between atoms: _336  and  _338
REMARK  137  A    between atoms: _338  and  _339
REMARK  138  A    between atoms: _338  and  _341
REMARK  139  A    between atoms: _341  and  _342
REMARK  140  A    between atoms: _347  and  _348
REMARK  141  A    between atoms: _350  and  _352
REMARK  142  A    between atoms: _352  and  _353
REMARK  143  A    between atoms: _356  and  _358
REMARK  144  A    between atoms: _358  and  _359
REMARK  145  A    between atoms: _358  and  _361
REMARK  146  A    between atoms: _361  and  _362
REMARK  147  A    between atoms: _372  and  _374
REMARK  148  A    between atoms: _374  and  _375
REMARK  149  A    between atoms: _374  and  _377
REMARK  150  A    between atoms: _377  and  _378
REMARK  151  A    between atoms: _384  and  _386
REMARK  152  A    between atoms: _386  and  _387
REMARK                            x       y       z     vdW  Elec       q    Type
REMARK                         _______ _______ _______ _____ _____    ______ ____
ROOT
ATOM      1  CG  TRP A   1      65.406  38.156  60.948  0.00  0.00    -0.002 A 
ATOM      2  CD1 TRP A   1      66.111  38.818  61.920  0.00  0.00    +0.068 A 
ATOM      3  NE1 TRP A   1      67.226  39.401  61.381  0.00  0.00    -0.352 N 
ATOM      4  HE1 TRP A   1      67.931  39.957  61.906  0.00  0.00    +0.166 HD
ATOM      5  CE2 TRP A   1      67.263  39.132  60.036  0.00  0.00    +0.056 A 
ATOM      6  CZ2 TRP A   1      68.199  39.508  59.065  0.00  0.00    +0.017 A 
ATOM      7  CH2 TRP A   1      67.977  39.092  57.773  0.00  0.00    +0.001 A 
ATOM      8  CZ3 TRP A   1      66.851  38.320  57.433  0.00  0.00    +0.000 A 
ATOM      9  CE3 TRP A   1      65.922  37.946  58.400  0.00  0.00    +0.001 A 
ATOM     10  CD2 TRP A   1      66.126  38.354  59.727  0.00  0.00    +0.013 A 
ENDROOT
BRANCH   1  11
ATOM     11  CB  TRP A   1      64.156  37.333  61.132  0.00  0.00    +0.053 C 
BRANCH  11  12
ATOM     12  CA  TRP A   1      62.887  38.168  61.233  0.00  0.00    +0.137 C 
BRANCH  12  13
ATOM     13  N   TRP A   1      61.748  37.315  61.541  0.00  0.00    -0.239 NA
ATOM     14  H   TRP A   1      61.816  36.289  61.385  0.00  0.00    +0.142 HD
ENDBRANCH  12  13
BRANCH  12  15
ATOM     15  C   TRP A   1      62.631  38.879  59.899  0.00  0.00    +0.224 C 
ATOM     16  O   TRP A   1      62.333  38.242  58.886  0.00  0.00    -0.287 OA
ENDBRANCH  12  15
ENDBRANCH  11  12
ENDBRANCH   1  11
TORSDOF 4
REMARK  Name = ../refined-set-2016/2bmk/2bmk_pocket.pdb
REMARK  152 active torsions:
REMARK  status: ('A' for Active; 'I' for Inactive)
REMARK    1  A    between atoms: _1  and  _3
REMARK    2  A    between atoms: _3  and  _4
REMARK    3  A    between atoms: _3  and  _6
REMARK    4  A    between atoms: _9  and  _11
REMARK    5  A    between atoms: _11  and  _12
REMARK    6  A    between atoms: _11  and  _14
REMARK    7  A    between atoms: _14  and  _15
REMARK    8  A    between atoms: _20  and  _22
REMARK    9  A    between atoms: _22  and  _23
REMARK   10  A    between atoms: _22  and  _25
REMARK   11  A    between atoms: _25  and  _26
REMARK   12  A    between atoms: _31  and  _32
REMARK   13  A    between atoms: _34  and  _36
REMARK   14  A    between atoms: _36  and  _37
REMARK   15  A    between atoms: _36  and  _39
REMARK   16  A    between atoms: _39  and  _40
REMARK   17  A    between atoms: _40  and  _41
REMARK   18  A    between atoms: _43  and  _45
REMARK   19  A    between atoms: _45  and  _46
REMARK   20  A    between atoms: _45  and  _48
REMARK   21  A    between atoms: _48  and  _49
REMARK   22  A    between atoms: _54  and  _56
REMARK   23  A    between atoms: _56  and  _57
REMARK   24  A    between atoms: _56  and  _59
REMARK   25  A    between atoms: _59  and  _60
REMARK   26  A    between atoms: _65  and  _66
REMARK   27  A    between atoms: _68  and  _70
REMARK   28  A    between atoms: _70  and  _71
REMARK   29  A    between atoms: _70  and  _73
REMARK   30  A    between atoms: _73  and  _74
REMARK   31  A    between atoms: _76  and  _78
REMARK   32  A    between atoms: _78  and  _79
REMARK   33  A    between atoms: _78  and  _81
REMARK   34  A    between atoms: _81  and  _82
REMARK   35  A    between atoms: _85  and  _87
REMARK   36  A    between atoms: _87  and  _88
REMARK   37  A    between atoms: _87  and  _90
REMARK   38  A    between atoms: _90  and  _91
REMARK   39  A    between atoms: _91  and  _92
REMARK   40  A    between atoms: _97  and  _99
REMARK   41  A    between atoms: _99  and  _100
REMARK   42  A    between atoms: _99  and  _102
REMARK   43  A    between atoms: _102  and  _103
REMARK   44  A    between atoms: _103  and  _104
REMARK   45  A    between atoms: _109  and  _111
REMARK   46  A    between atoms: _111  and  _112
REMARK   47  A    between atoms: _111  and  _114
REMARK   48  A    between atoms: _114  and  _115
REMARK   49  A    between atoms: _115  and  _116
REMARK   50  A    between atoms: _116  and  _117
REMARK   51  A    between atoms: _126  and  _128
REMARK   52  A    between atoms: _128  and  _129
REMARK   53  A    between atoms: _128  and  _131
REMARK   54  A    between atoms: _131  and  _132
REMARK   55  A    between atoms: _134  and  _136
REMARK   56  A    between atoms: _136  and  _137
REMARK   57  A    between atoms: _136  and  _139
REMARK   58  A    between atoms: _139  and  _140
REMARK   59  A    between atoms: _143  and  _145
REMARK   60  A    between atoms: _145  and  _146
REMARK   61  A    between atoms: _145  and  _148
REMARK   62  A    between atoms: _148  and  _149
REMARK   63  A    between atoms: _154  and  _155
REMARK   64  A    between atoms: _157  and  _159
REMARK   65  A    between atoms: _159  and  _160
REMARK   66  A    between atoms: _159  and  _162
REMARK   67  A    between atoms: _162  and  _163
REMARK   68  A    between atoms: _169  and  _171
REMARK   69  A    between atoms: _171  and  _172
REMARK   70  A    between atoms: _171  and  _174
REMARK   71  A    between atoms: _174  and  _175
REMARK   72  A    between atoms: _180  and  _181
REMARK   73  A    between atoms: _183  and  _185
REMARK   74  A    between atoms: _185  and  _186
REMARK   75  A    between atoms: _185  and  _188
REMARK   76  A    between atoms: _188  and  _189
REMARK   77  A    between atoms: _189  and  _190
REMARK   78  A    between atoms: _192  and  _194
REMARK   79  A    between atoms: _194  and  _195
REMARK   80  A    between atoms: _194  and  _197
REMARK   81  A    between atoms: _197  and  _198
REMARK   82  A    between atoms: _200  and  _202
REMARK   83  A    between atoms: _202  and  _203
REMARK   84  A    between atoms: _202  and  _205
REMARK   85  A    between atoms: _205  and  _206
REMARK   86  A    between atoms: _216  and  _218
REMARK   87  A    between atoms: _218  and  _219
REMARK   88  A    between atoms: _218  and  _221
REMARK   89  A    between atoms: _221  and  _222
REMARK   90  A    between atoms: _225  and  _227
REMARK   91  A    between atoms: _227  and  _228
REMARK   92  A    between atoms: _227  and  _230
REMARK   93  A    between atoms: _230  and  _231
REMARK   94  A    between atoms: _234  and  _236
REMARK   95  A    between atoms: _236  and  _237
REMARK   96  A    between atoms: _236  and  _239
REMARK   97  A    between atoms: _239  and  _240
REMARK   98  A    between atoms: _240  and  _241
REMARK   99  A    between atoms: _241  and  _242
REMARK  100  A    between atoms: _251  and  _253
REMARK  101  A    between atoms: _253  and  _254
REMARK  102  A    between atoms: _253  and  _256
REMARK  103  A    between atoms: _256  and  _257
REMARK  104  A    between atoms: _262  and  _264
REMARK  105  A    between atoms: _264  and  _265
REMARK  106  A    between atoms: _264  and  _267
REMARK  107  A    between atoms: _267  and  _268
REMARK  108  A    between atoms: _273  and  _275
REMARK  109  A    between atoms: _275  and  _276
REMARK  110  A    between atoms: _275  and  _278
REMARK  111  A    between atoms: _278  and  _279
REMARK  112  A    between atoms: _282  and  _284
REMARK  113  A    between atoms: _284  and  _285
REMARK  114  A    between atoms: _284  and  _287
REMARK  115  A    between atoms: _287  and  _288
REMARK  116  A    between atoms: _288  and  _289
REMARK  117  A    between atoms: _292  and  _294
REMARK  118  A    between atoms: _294  and  _295
REMARK  119  A    between atoms: _294  and  _297
REMARK  120  A    between atoms: _297  and  _298
REMARK  121  A    between atoms: _298  and  _299
REMARK  122  A    between atoms: _299  and  _300
REMARK  123  A    between atoms: _309  and  _311
REMARK  124  A    between atoms: _311  and  _312
REMARK  125  A    between atoms: _311  and  _314
REMARK  126  A    between atoms: _314  and  _315
REMARK  127  A    between atoms: _318  and  _320
REMARK  128  A    between atoms: _320  and  _321
REMARK  129  A    between atoms: _320  and  _323
REMARK  130  A    between atoms: _323  and  _324
REMARK  131  A    between atoms: _324  and  _325
REMARK  132  A    between atoms: _325  and  _326
REMARK  133  A    between atoms: _326  and  _327
REMARK  134  A    between atoms: _331  and  _333
REMARK  135  A    between atoms: _333  and  _334
REMARK  136  A    between atoms: _336  and  _338
REMARK  137  A    between atoms: _338  and  _339
REMARK  138  A    between atoms: _338  and  _341
REMARK  139  A    between atoms: _341  and  _342
REMARK  140  A    between atoms: _347  and  _348
REMARK  141  A    between atoms: _350  and  _352
REMARK  142  A    between atoms: _352  and  _353
REMARK  143  A    between atoms: _356  and  _358
REMARK  144  A    between atoms: _358  and  _359
REMARK  145  A    between atoms: _358  and  _361
REMARK  146  A    between atoms: _361  and  _362
REMARK  147  A    between atoms: _372  and  _374
REMARK  148  A    between atoms: _374  and  _375
REMARK  149  A    between atoms: _374  and  _377
REMARK  150  A    between atoms: _377  and  _378
REMARK  151  A    between atoms: _384  and  _386
REMARK  152  A    between atoms: _386  and  _387
REMARK                            x       y       z     vdW  Elec       q    Type
REMARK                         _______ _______ _______ _____ _____    ______ ____
ROOT
ATOM      1  CA  ARG A   3      75.503  45.970  58.683  0.00  0.00    +0.149 C 
ENDROOT
BRANCH   1   4
ATOM      2  C   ILE A   2      73.092  46.137  58.867  0.00  0.00    +0.241 C 
ATOM      3  O   ILE A   2      73.130  46.070  60.101  0.00  0.00    -0.273 OA
ATOM      4  N   ARG A   3      74.179  46.125  58.105  0.00  0.00    -0.297 N 
ATOM      5  H   ARG A   3      74.081  46.229  57.075  0.00  0.00    +0.150 HD
BRANCH   2   6
ATOM      6  CA  ILE A   2      71.761  46.235  58.142  0.00  0.00    +0.148 C 
BRANCH   6   8
ATOM      7  C   LEU A   1      70.067  44.486  58.280  0.00  0.00    +0.238 C 
ATOM      8  N   ILE A   2      70.891  45.329  58.889  0.00  0.00    -0.297 N 
ATOM      9  H   ILE A   2      70.919  45.345  59.929  0.00  0.00    +0.150 HD
ATOM     10  O   LEU A   1      69.917  44.454  57.067  0.00  0.00    -0.274 OA
BRANCH   7  11
ATOM     11  CA  LEU A   1      69.270  43.547  59.166  0.00  0.00    +0.145 C 
BRANCH  11  12
ATOM     12  N   LEU A   1      68.275  42.854  58.371  0.00  0.00    -0.238 NA
ATOM     13  H   LEU A   1      68.464  42.638  57.371  0.00  0.00    +0.142 HD
ENDBRANCH  11  12
BRANCH  11  14
ATOM     14  CB  LEU A   1      70.188  42.523  59.847  0.00  0.00    +0.026 C 
BRANCH  14  15
ATOM     15  CG  LEU A   1      71.596  42.139  59.363  0.00  0.00    +0.002 C 
ATOM     16  CD2 LEU A   1      71.809  40.666  59.689  0.00  0.00    +0.000 C 
ATOM     17  CD1 LEU A   1      71.802  42.334  57.903  0.00  0.00    +0.000 C 
ENDBRANCH  14  15
ENDBRANCH  11  14
ENDBRANCH   7  11
ENDBRANCH   6   8
BRANCH   6  18
ATOM     18  CB  ILE A   2      71.265  47.708  58.143  0.00  0.00    +0.027 C 
ATOM     19  CG2 ILE A   2      71.072  48.197  59.565  0.00  0.00    +0.002 C 
BRANCH  18  20
ATOM     20  CG1 ILE A   2      72.286  48.592  57.414  0.00  0.00    +0.002 C 
ATOM     21  CD1 ILE A   2      71.787  49.986  57.065  0.00  0.00    +0.000 C 
ENDBRANCH  18  20
ENDBRANCH   6  18
ENDBRANCH   2   6
ENDBRANCH   1   4
BRANCH   1  22
ATOM     22  C   ARG A   3      76.158  47.243  59.223  0.00  0.00    +0.241 C 
ATOM     23  N   ASN A   4      77.347  47.088  59.806  0.00  0.00    -0.298 N 
ATOM     24  H   ASN A   4      77.762  46.136  59.859  0.00  0.00    +0.150 HD
ATOM     25  O   ARG A   3      75.592  48.334  59.128  0.00  0.00    -0.273 OA
BRANCH  23  26
ATOM     26  CA  ASN A   4      78.082  48.213  60.371  0.00  0.00    +0.146 C 
BRANCH  26  27
ATOM     27  C   ASN A   4      79.000  48.853  59.336  0.00  0.00    +0.227 C 
ATOM     28  O   ASN A   4      79.114  48.358  58.220  0.00  0.00    -0.286 OA
ENDBRANCH  26  27
BRANCH  26  29
ATOM     29  CB  ASN A   4      78.898  47.769  61.598  0.00  0.00    +0.112 C 
BRANCH  29  30
ATOM     30  CG  ASN A   4      79.944  46.722  61.264  0.00  0.00    +0.222 C 
ATOM     31  ND2 ASN A   4      80.563  46.150  62.301  0.00  0.00    -0.329 N 
ATOM     32 HD21 ASN A   4      80.311  46.423  63.272  0.00  0.00    +0.145 HD
ATOM     33 HD22 ASN A   4      81.297  45.431  62.137  0.00  0.00    +0.145 HD
ATOM     34  OD1 ASN A   4      80.204  46.435  60.093  0.00  0.00    -0.275 OA
ENDBRANCH  29  30
ENDBRANCH  26  29
ENDBRANCH  23  26
ENDBRANCH   1  22
BRANCH   1  35
ATOM     35  CB  ARG A   3      76.403  45.285  57.655  0.00  0.00    +0.033 C 
BRANCH  35  36
ATOM     36  CG  ARG A   3      75.851  43.934  57.190  0.00  0.00    +0.045 C 
BRANCH  36  37
ATOM     37  CD  ARG A   3      76.908  43.116  56.466  0.00  0.00    +0.174 C 
BRANCH  37  38
ATOM     38  NE  ARG A   3      76.461  41.759  56.145  0.00  0.00    -0.265 N 
ATOM     39  HE  ARG A   3      76.808  40.984  56.745  0.00  0.00    +0.259 HD
ATOM     40  CZ  ARG A   3      75.642  41.443  55.141  0.00  0.00    +0.342 C 
ATOM     41  NH2 ARG A   3      75.306  40.175  54.937  0.00  0.00    -0.292 N 
ATOM     42 HH21 ARG A   3      75.681  39.431  55.559  0.00  0.00    +0.255 HD
ATOM     43 HH22 ARG A   3      74.668  39.926  54.155  0.00  0.00    +0.255 HD
ATOM     44  NH1 ARG A   3      75.160  42.383  54.337  0.00  0.00    -0.292 N 
ATOM     45 HH11 ARG A   3      75.420  43.379  54.487  0.00  0.00    +0.255 HD
ATOM     46 HH12 ARG A   3      74.522  42.124  53.558  0.00  0.00    +0.255 HD
ENDBRANCH  37  38
ENDBRANCH  36  37
ENDBRANCH  35  36
ENDBRANCH   1  35
TORSDOF 18
REMARK  Name = ../refined-set-2016/2bmk/2bmk_pocket.pdb
REMARK  152 active torsions:
REMARK  status: ('A' for Active; 'I' for Inactive)
REMARK    1  A    between atoms: _1  and  _3
REMARK    2  A    between atoms: _3  and  _4
REMARK    3  A    between atoms: _3  and  _6
REMARK    4  A    between atoms: _9  and  _11
REMARK    5  A    between atoms: _11  and  _12
REMARK    6  A    between atoms: _11  and  _14
REMARK    7  A    between atoms: _14  and  _15
REMARK    8  A    between atoms: _20  and  _22
REMARK    9  A    between atoms: _22  and  _23
REMARK   10  A    between atoms: _22  and  _25
REMARK   11  A    between atoms: _25  and  _26
REMARK   12  A    between atoms: _31  and  _32
REMARK   13  A    between atoms: _34  and  _36
REMARK   14  A    between atoms: _36  and  _37
REMARK   15  A    between atoms: _36  and  _39
REMARK   16  A    between atoms: _39  and  _40
REMARK   17  A    between atoms: _40  and  _41
REMARK   18  A    between atoms: _43  and  _45
REMARK   19  A    between atoms: _45  and  _46
REMARK   20  A    between atoms: _45  and  _48
REMARK   21  A    between atoms: _48  and  _49
REMARK   22  A    between atoms: _54  and  _56
REMARK   23  A    between atoms: _56  and  _57
REMARK   24  A    between atoms: _56  and  _59
REMARK   25  A    between atoms: _59  and  _60
REMARK   26  A    between atoms: _65  and  _66
REMARK   27  A    between atoms: _68  and  _70
REMARK   28  A    between atoms: _70  and  _71
REMARK   29  A    between atoms: _70  and  _73
REMARK   30  A    between atoms: _73  and  _74
REMARK   31  A    between atoms: _76  and  _78
REMARK   32  A    between atoms: _78  and  _79
REMARK   33  A    between atoms: _78  and  _81
REMARK   34  A    between atoms: _81  and  _82
REMARK   35  A    between atoms: _85  and  _87
REMARK   36  A    between atoms: _87  and  _88
REMARK   37  A    between atoms: _87  and  _90
REMARK   38  A    between atoms: _90  and  _91
REMARK   39  A    between atoms: _91  and  _92
REMARK   40  A    between atoms: _97  and  _99
REMARK   41  A    between atoms: _99  and  _100
REMARK   42  A    between atoms: _99  and  _102
REMARK   43  A    between atoms: _102  and  _103
REMARK   44  A    between atoms: _103  and  _104
REMARK   45  A    between atoms: _109  and  _111
REMARK   46  A    between atoms: _111  and  _112
REMARK   47  A    between atoms: _111  and  _114
REMARK   48  A    between atoms: _114  and  _115
REMARK   49  A    between atoms: _115  and  _116
REMARK   50  A    between atoms: _116  and  _117
REMARK   51  A    between atoms: _126  and  _128
REMARK   52  A    between atoms: _128  and  _129
REMARK   53  A    between atoms: _128  and  _131
REMARK   54  A    between atoms: _131  and  _132
REMARK   55  A    between atoms: _134  and  _136
REMARK   56  A    between atoms: _136  and  _137
REMARK   57  A    between atoms: _136  and  _139
REMARK   58  A    between atoms: _139  and  _140
REMARK   59  A    between atoms: _143  and  _145
REMARK   60  A    between atoms: _145  and  _146
REMARK   61  A    between atoms: _145  and  _148
REMARK   62  A    between atoms: _148  and  _149
REMARK   63  A    between atoms: _154  and  _155
REMARK   64  A    between atoms: _157  and  _159
REMARK   65  A    between atoms: _159  and  _160
REMARK   66  A    between atoms: _159  and  _162
REMARK   67  A    between atoms: _162  and  _163
REMARK   68  A    between atoms: _169  and  _171
REMARK   69  A    between atoms: _171  and  _172
REMARK   70  A    between atoms: _171  and  _174
REMARK   71  A    between atoms: _174  and  _175
REMARK   72  A    between atoms: _180  and  _181
REMARK   73  A    between atoms: _183  and  _185
REMARK   74  A    between atoms: _185  and  _186
REMARK   75  A    between atoms: _185  and  _188
REMARK   76  A    between atoms: _188  and  _189
REMARK   77  A    between atoms: _189  and  _190
REMARK   78  A    between atoms: _192  and  _194
REMARK   79  A    between atoms: _194  and  _195
REMARK   80  A    between atoms: _194  and  _197
REMARK   81  A    between atoms: _197  and  _198
REMARK   82  A    between atoms: _200  and  _202
REMARK   83  A    between atoms: _202  and  _203
REMARK   84  A    between atoms: _202  and  _205
REMARK   85  A    between atoms: _205  and  _206
REMARK   86  A    between atoms: _216  and  _218
REMARK   87  A    between atoms: _218  and  _219
REMARK   88  A    between atoms: _218  and  _221
REMARK   89  A    between atoms: _221  and  _222
REMARK   90  A    between atoms: _225  and  _227
REMARK   91  A    between atoms: _227  and  _228
REMARK   92  A    between atoms: _227  and  _230
REMARK   93  A    between atoms: _230  and  _231
REMARK   94  A    between atoms: _234  and  _236
REMARK   95  A    between atoms: _236  and  _237
REMARK   96  A    between atoms: _236  and  _239
REMARK   97  A    between atoms: _239  and  _240
REMARK   98  A    between atoms: _240  and  _241
REMARK   99  A    between atoms: _241  and  _242
REMARK  100  A    between atoms: _251  and  _253
REMARK  101  A    between atoms: _253  and  _254
REMARK  102  A    between atoms: _253  and  _256
REMARK  103  A    between atoms: _256  and  _257
REMARK  104  A    between atoms: _262  and  _264
REMARK  105  A    between atoms: _264  and  _265
REMARK  106  A    between atoms: _264  and  _267
REMARK  107  A    between atoms: _267  and  _268
REMARK  108  A    between atoms: _273  and  _275
REMARK  109  A    between atoms: _275  and  _276
REMARK  110  A    between atoms: _275  and  _278
REMARK  111  A    between atoms: _278  and  _279
REMARK  112  A    between atoms: _282  and  _284
REMARK  113  A    between atoms: _284  and  _285
REMARK  114  A    between atoms: _284  and  _287
REMARK  115  A    between atoms: _287  and  _288
REMARK  116  A    between atoms: _288  and  _289
REMARK  117  A    between atoms: _292  and  _294
REMARK  118  A    between atoms: _294  and  _295
REMARK  119  A    between atoms: _294  and  _297
REMARK  120  A    between atoms: _297  and  _298
REMARK  121  A    between atoms: _298  and  _299
REMARK  122  A    between atoms: _299  and  _300
REMARK  123  A    between atoms: _309  and  _311
REMARK  124  A    between atoms: _311  and  _312
REMARK  125  A    between atoms: _311  and  _314
REMARK  126  A    between atoms: _314  and  _315
REMARK  127  A    between atoms: _318  and  _320
REMARK  128  A    between atoms: _320  and  _321
REMARK  129  A    between atoms: _320  and  _323
REMARK  130  A    between atoms: _323  and  _324
REMARK  131  A    between atoms: _324  and  _325
REMARK  132  A    between atoms: _325  and  _326
REMARK  133  A    between atoms: _326  and  _327
REMARK  134  A    between atoms: _331  and  _333
REMARK  135  A    between atoms: _333  and  _334
REMARK  136  A    between atoms: _336  and  _338
REMARK  137  A    between atoms: _338  and  _339
REMARK  138  A    between atoms: _338  and  _341
REMARK  139  A    between atoms: _341  and  _342
REMARK  140  A    between atoms: _347  and  _348
REMARK  141  A    between atoms: _350  and  _352
REMARK  142  A    between atoms: _352  and  _353
REMARK  143  A    between atoms: _356  and  _358
REMARK  144  A    between atoms: _358  and  _359
REMARK  145  A    between atoms: _358  and  _361
REMARK  146  A    between atoms: _361  and  _362
REMARK  147  A    between atoms: _372  and  _374
REMARK  148  A    between atoms: _374  and  _375
REMARK  149  A    between atoms: _374  and  _377
REMARK  150  A    between atoms: _377  and  _378
REMARK  151  A    between atoms: _384  and  _386
REMARK  152  A    between atoms: _386  and  _387
REMARK                            x       y       z     vdW  Elec       q    Type
REMARK                         _______ _______ _______ _____ _____    ______ ____
ROOT
ATOM      1  CB  ASN A   1      80.175  44.972  56.919  0.00  0.00    +0.110 C 
ENDROOT
BRANCH   1   2
ATOM      2  CG  ASN A   1      81.151  43.957  57.485  0.00  0.00    +0.221 C 
ATOM      3  ND2 ASN A   1      81.421  44.045  58.779  0.00  0.00    -0.329 N 
ATOM      4 HD21 ASN A   1      80.950  44.767  59.360  0.00  0.00    +0.145 HD
ATOM      5 HD22 ASN A   1      82.104  43.392  59.213  0.00  0.00    +0.145 HD
ATOM      6  OD1 ASN A   1      81.680  43.122  56.756  0.00  0.00    -0.275 OA
ENDBRANCH   1   2
BRANCH   1   7
ATOM      7  CA  ASN A   1      80.892  46.154  56.271  0.00  0.00    +0.142 C 
BRANCH   7   8
ATOM      8  N   ASN A   1      81.489  46.974  57.307  0.00  0.00    -0.239 NA
ATOM      9  H   ASN A   1      80.901  47.325  58.090  0.00  0.00    +0.142 HD
ENDBRANCH   7   8
BRANCH   7  10
ATOM     10  C   ASN A   1      79.973  46.919  55.317  0.00  0.00    +0.225 C 
ATOM     11  O   ASN A   1      79.037  46.359  54.747  0.00  0.00    -0.287 OA
ENDBRANCH   7  10
ENDBRANCH   1   7
TORSDOF 4
REMARK  Name = ../refined-set-2016/2bmk/2bmk_pocket.pdb
REMARK  152 active torsions:
REMARK  status: ('A' for Active; 'I' for Inactive)
REMARK    1  A    between atoms: _1  and  _3
REMARK    2  A    between atoms: _3  and  _4
REMARK    3  A    between atoms: _3  and  _6
REMARK    4  A    between atoms: _9  and  _11
REMARK    5  A    between atoms: _11  and  _12
REMARK    6  A    between atoms: _11  and  _14
REMARK    7  A    between atoms: _14  and  _15
REMARK    8  A    between atoms: _20  and  _22
REMARK    9  A    between atoms: _22  and  _23
REMARK   10  A    between atoms: _22  and  _25
REMARK   11  A    between atoms: _25  and  _26
REMARK   12  A    between atoms: _31  and  _32
REMARK   13  A    between atoms: _34  and  _36
REMARK   14  A    between atoms: _36  and  _37
REMARK   15  A    between atoms: _36  and  _39
REMARK   16  A    between atoms: _39  and  _40
REMARK   17  A    between atoms: _40  and  _41
REMARK   18  A    between atoms: _43  and  _45
REMARK   19  A    between atoms: _45  and  _46
REMARK   20  A    between atoms: _45  and  _48
REMARK   21  A    between atoms: _48  and  _49
REMARK   22  A    between atoms: _54  and  _56
REMARK   23  A    between atoms: _56  and  _57
REMARK   24  A    between atoms: _56  and  _59
REMARK   25  A    between atoms: _59  and  _60
REMARK   26  A    between atoms: _65  and  _66
REMARK   27  A    between atoms: _68  and  _70
REMARK   28  A    between atoms: _70  and  _71
REMARK   29  A    between atoms: _70  and  _73
REMARK   30  A    between atoms: _73  and  _74
REMARK   31  A    between atoms: _76  and  _78
REMARK   32  A    between atoms: _78  and  _79
REMARK   33  A    between atoms: _78  and  _81
REMARK   34  A    between atoms: _81  and  _82
REMARK   35  A    between atoms: _85  and  _87
REMARK   36  A    between atoms: _87  and  _88
REMARK   37  A    between atoms: _87  and  _90
REMARK   38  A    between atoms: _90  and  _91
REMARK   39  A    between atoms: _91  and  _92
REMARK   40  A    between atoms: _97  and  _99
REMARK   41  A    between atoms: _99  and  _100
REMARK   42  A    between atoms: _99  and  _102
REMARK   43  A    between atoms: _102  and  _103
REMARK   44  A    between atoms: _103  and  _104
REMARK   45  A    between atoms: _109  and  _111
REMARK   46  A    between atoms: _111  and  _112
REMARK   47  A    between atoms: _111  and  _114
REMARK   48  A    between atoms: _114  and  _115
REMARK   49  A    between atoms: _115  and  _116
REMARK   50  A    between atoms: _116  and  _117
REMARK   51  A    between atoms: _126  and  _128
REMARK   52  A    between atoms: _128  and  _129
REMARK   53  A    between atoms: _128  and  _131
REMARK   54  A    between atoms: _131  and  _132
REMARK   55  A    between atoms: _134  and  _136
REMARK   56  A    between atoms: _136  and  _137
REMARK   57  A    between atoms: _136  and  _139
REMARK   58  A    between atoms: _139  and  _140
REMARK   59  A    between atoms: _143  and  _145
REMARK   60  A    between atoms: _145  and  _146
REMARK   61  A    between atoms: _145  and  _148
REMARK   62  A    between atoms: _148  and  _149
REMARK   63  A    between atoms: _154  and  _155
REMARK   64  A    between atoms: _157  and  _159
REMARK   65  A    between atoms: _159  and  _160
REMARK   66  A    between atoms: _159  and  _162
REMARK   67  A    between atoms: _162  and  _163
REMARK   68  A    between atoms: _169  and  _171
REMARK   69  A    between atoms: _171  and  _172
REMARK   70  A    between atoms: _171  and  _174
REMARK   71  A    between atoms: _174  and  _175
REMARK   72  A    between atoms: _180  and  _181
REMARK   73  A    between atoms: _183  and  _185
REMARK   74  A    between atoms: _185  and  _186
REMARK   75  A    between atoms: _185  and  _188
REMARK   76  A    between atoms: _188  and  _189
REMARK   77  A    between atoms: _189  and  _190
REMARK   78  A    between atoms: _192  and  _194
REMARK   79  A    between atoms: _194  and  _195
REMARK   80  A    between atoms: _194  and  _197
REMARK   81  A    between atoms: _197  and  _198
REMARK   82  A    between atoms: _200  and  _202
REMARK   83  A    between atoms: _202  and  _203
REMARK   84  A    between atoms: _202  and  _205
REMARK   85  A    between atoms: _205  and  _206
REMARK   86  A    between atoms: _216  and  _218
REMARK   87  A    between atoms: _218  and  _219
REMARK   88  A    between atoms: _218  and  _221
REMARK   89  A    between atoms: _221  and  _222
REMARK   90  A    between atoms: _225  and  _227
REMARK   91  A    between atoms: _227  and  _228
REMARK   92  A    between atoms: _227  and  _230
REMARK   93  A    between atoms: _230  and  _231
REMARK   94  A    between atoms: _234  and  _236
REMARK   95  A    between atoms: _236  and  _237
REMARK   96  A    between atoms: _236  and  _239
REMARK   97  A    between atoms: _239  and  _240
REMARK   98  A    between atoms: _240  and  _241
REMARK   99  A    between atoms: _241  and  _242
REMARK  100  A    between atoms: _251  and  _253
REMARK  101  A    between atoms: _253  and  _254
REMARK  102  A    between atoms: _253  and  _256
REMARK  103  A    between atoms: _256  and  _257
REMARK  104  A    between atoms: _262  and  _264
REMARK  105  A    between atoms: _264  and  _265
REMARK  106  A    between atoms: _264  and  _267
REMARK  107  A    between atoms: _267  and  _268
REMARK  108  A    between atoms: _273  and  _275
REMARK  109  A    between atoms: _275  and  _276
REMARK  110  A    between atoms: _275  and  _278
REMARK  111  A    between atoms: _278  and  _279
REMARK  112  A    between atoms: _282  and  _284
REMARK  113  A    between atoms: _284  and  _285
REMARK  114  A    between atoms: _284  and  _287
REMARK  115  A    between atoms: _287  and  _288
REMARK  116  A    between atoms: _288  and  _289
REMARK  117  A    between atoms: _292  and  _294
REMARK  118  A    between atoms: _294  and  _295
REMARK  119  A    between atoms: _294  and  _297
REMARK  120  A    between atoms: _297  and  _298
REMARK  121  A    between atoms: _298  and  _299
REMARK  122  A    between atoms: _299  and  _300
REMARK  123  A    between atoms: _309  and  _311
REMARK  124  A    between atoms: _311  and  _312
REMARK  125  A    between atoms: _311  and  _314
REMARK  126  A    between atoms: _314  and  _315
REMARK  127  A    between atoms: _318  and  _320
REMARK  128  A    between atoms: _320  and  _321
REMARK  129  A    between atoms: _320  and  _323
REMARK  130  A    between atoms: _323  and  _324
REMARK  131  A    between atoms: _324  and  _325
REMARK  132  A    between atoms: _325  and  _326
REMARK  133  A    between atoms: _326  and  _327
REMARK  134  A    between atoms: _331  and  _333
REMARK  135  A    between atoms: _333  and  _334
REMARK  136  A    between atoms: _336  and  _338
REMARK  137  A    between atoms: _338  and  _339
REMARK  138  A    between atoms: _338  and  _341
REMARK  139  A    between atoms: _341  and  _342
REMARK  140  A    between atoms: _347  and  _348
REMARK  141  A    between atoms: _350  and  _352
REMARK  142  A    between atoms: _352  and  _353
REMARK  143  A    between atoms: _356  and  _358
REMARK  144  A    between atoms: _358  and  _359
REMARK  145  A    between atoms: _358  and  _361
REMARK  146  A    between atoms: _361  and  _362
REMARK  147  A    between atoms: _372  and  _374
REMARK  148  A    between atoms: _374  and  _375
REMARK  149  A    between atoms: _374  and  _377
REMARK  150  A    between atoms: _377  and  _378
REMARK  151  A    between atoms: _384  and  _386
REMARK  152  A    between atoms: _386  and  _387
REMARK                            x       y       z     vdW  Elec       q    Type
REMARK                         _______ _______ _______ _____ _____    ______ ____
ROOT
ATOM      1  CA  THR A   1      74.777  46.639  53.594  0.00  0.00    +0.160 C 
ENDROOT
BRANCH   1   2
ATOM      2  N   THR A   1      75.594  47.375  54.530  0.00  0.00    -0.237 NA
ATOM      3  H   THR A   1      76.478  46.963  54.892  0.00  0.00    +0.142 HD
ENDBRANCH   1   2
BRANCH   1   4
ATOM      4  C   THR A   1      73.554  46.066  54.296  0.00  0.00    +0.227 C 
ATOM      5  O   THR A   1      73.501  45.977  55.527  0.00  0.00    -0.287 OA
ENDBRANCH   1   4
BRANCH   1   6
ATOM      6  CB  THR A   1      75.575  45.537  52.944  0.00  0.00    +0.134 C 
ATOM      7  CG2 THR A   1      76.682  46.154  52.068  0.00  0.00    +0.034 C 
BRANCH   6   8
ATOM      8  OG1 THR A   1      76.144  44.708  53.963  0.00  0.00    -0.383 OA
ATOM      9  HG1 THR A   1      76.736  45.254  54.539  0.00  0.00    +0.210 HD
ENDBRANCH   6   8
ENDBRANCH   1   6
TORSDOF 4
REMARK  Name = ../refined-set-2016/2bmk/2bmk_pocket.pdb
REMARK  152 active torsions:
REMARK  status: ('A' for Active; 'I' for Inactive)
REMARK    1  A    between atoms: _1  and  _3
REMARK    2  A    between atoms: _3  and  _4
REMARK    3  A    between atoms: _3  and  _6
REMARK    4  A    between atoms: _9  and  _11
REMARK    5  A    between atoms: _11  and  _12
REMARK    6  A    between atoms: _11  and  _14
REMARK    7  A    between atoms: _14  and  _15
REMARK    8  A    between atoms: _20  and  _22
REMARK    9  A    between atoms: _22  and  _23
REMARK   10  A    between atoms: _22  and  _25
REMARK   11  A    between atoms: _25  and  _26
REMARK   12  A    between atoms: _31  and  _32
REMARK   13  A    between atoms: _34  and  _36
REMARK   14  A    between atoms: _36  and  _37
REMARK   15  A    between atoms: _36  and  _39
REMARK   16  A    between atoms: _39  and  _40
REMARK   17  A    between atoms: _40  and  _41
REMARK   18  A    between atoms: _43  and  _45
REMARK   19  A    between atoms: _45  and  _46
REMARK   20  A    between atoms: _45  and  _48
REMARK   21  A    between atoms: _48  and  _49
REMARK   22  A    between atoms: _54  and  _56
REMARK   23  A    between atoms: _56  and  _57
REMARK   24  A    between atoms: _56  and  _59
REMARK   25  A    between atoms: _59  and  _60
REMARK   26  A    between atoms: _65  and  _66
REMARK   27  A    between atoms: _68  and  _70
REMARK   28  A    between atoms: _70  and  _71
REMARK   29  A    between atoms: _70  and  _73
REMARK   30  A    between atoms: _73  and  _74
REMARK   31  A    between atoms: _76  and  _78
REMARK   32  A    between atoms: _78  and  _79
REMARK   33  A    between atoms: _78  and  _81
REMARK   34  A    between atoms: _81  and  _82
REMARK   35  A    between atoms: _85  and  _87
REMARK   36  A    between atoms: _87  and  _88
REMARK   37  A    between atoms: _87  and  _90
REMARK   38  A    between atoms: _90  and  _91
REMARK   39  A    between atoms: _91  and  _92
REMARK   40  A    between atoms: _97  and  _99
REMARK   41  A    between atoms: _99  and  _100
REMARK   42  A    between atoms: _99  and  _102
REMARK   43  A    between atoms: _102  and  _103
REMARK   44  A    between atoms: _103  and  _104
REMARK   45  A    between atoms: _109  and  _111
REMARK   46  A    between atoms: _111  and  _112
REMARK   47  A    between atoms: _111  and  _114
REMARK   48  A    between atoms: _114  and  _115
REMARK   49  A    between atoms: _115  and  _116
REMARK   50  A    between atoms: _116  and  _117
REMARK   51  A    between atoms: _126  and  _128
REMARK   52  A    between atoms: _128  and  _129
REMARK   53  A    between atoms: _128  and  _131
REMARK   54  A    between atoms: _131  and  _132
REMARK   55  A    between atoms: _134  and  _136
REMARK   56  A    between atoms: _136  and  _137
REMARK   57  A    between atoms: _136  and  _139
REMARK   58  A    between atoms: _139  and  _140
REMARK   59  A    between atoms: _143  and  _145
REMARK   60  A    between atoms: _145  and  _146
REMARK   61  A    between atoms: _145  and  _148
REMARK   62  A    between atoms: _148  and  _149
REMARK   63  A    between atoms: _154  and  _155
REMARK   64  A    between atoms: _157  and  _159
REMARK   65  A    between atoms: _159  and  _160
REMARK   66  A    between atoms: _159  and  _162
REMARK   67  A    between atoms: _162  and  _163
REMARK   68  A    between atoms: _169  and  _171
REMARK   69  A    between atoms: _171  and  _172
REMARK   70  A    between atoms: _171  and  _174
REMARK   71  A    between atoms: _174  and  _175
REMARK   72  A    between atoms: _180  and  _181
REMARK   73  A    between atoms: _183  and  _185
REMARK   74  A    between atoms: _185  and  _186
REMARK   75  A    between atoms: _185  and  _188
REMARK   76  A    between atoms: _188  and  _189
REMARK   77  A    between atoms: _189  and  _190
REMARK   78  A    between atoms: _192  and  _194
REMARK   79  A    between atoms: _194  and  _195
REMARK   80  A    between atoms: _194  and  _197
REMARK   81  A    between atoms: _197  and  _198
REMARK   82  A    between atoms: _200  and  _202
REMARK   83  A    between atoms: _202  and  _203
REMARK   84  A    between atoms: _202  and  _205
REMARK   85  A    between atoms: _205  and  _206
REMARK   86  A    between atoms: _216  and  _218
REMARK   87  A    between atoms: _218  and  _219
REMARK   88  A    between atoms: _218  and  _221
REMARK   89  A    between atoms: _221  and  _222
REMARK   90  A    between atoms: _225  and  _227
REMARK   91  A    between atoms: _227  and  _228
REMARK   92  A    between atoms: _227  and  _230
REMARK   93  A    between atoms: _230  and  _231
REMARK   94  A    between atoms: _234  and  _236
REMARK   95  A    between atoms: _236  and  _237
REMARK   96  A    between atoms: _236  and  _239
REMARK   97  A    between atoms: _239  and  _240
REMARK   98  A    between atoms: _240  and  _241
REMARK   99  A    between atoms: _241  and  _242
REMARK  100  A    between atoms: _251  and  _253
REMARK  101  A    between atoms: _253  and  _254
REMARK  102  A    between atoms: _253  and  _256
REMARK  103  A    between atoms: _256  and  _257
REMARK  104  A    between atoms: _262  and  _264
REMARK  105  A    between atoms: _264  and  _265
REMARK  106  A    between atoms: _264  and  _267
REMARK  107  A    between atoms: _267  and  _268
REMARK  108  A    between atoms: _273  and  _275
REMARK  109  A    between atoms: _275  and  _276
REMARK  110  A    between atoms: _275  and  _278
REMARK  111  A    between atoms: _278  and  _279
REMARK  112  A    between atoms: _282  and  _284
REMARK  113  A    between atoms: _284  and  _285
REMARK  114  A    between atoms: _284  and  _287
REMARK  115  A    between atoms: _287  and  _288
REMARK  116  A    between atoms: _288  and  _289
REMARK  117  A    between atoms: _292  and  _294
REMARK  118  A    between atoms: _294  and  _295
REMARK  119  A    between atoms: _294  and  _297
REMARK  120  A    between atoms: _297  and  _298
REMARK  121  A    between atoms: _298  and  _299
REMARK  122  A    between atoms: _299  and  _300
REMARK  123  A    between atoms: _309  and  _311
REMARK  124  A    between atoms: _311  and  _312
REMARK  125  A    between atoms: _311  and  _314
REMARK  126  A    between atoms: _314  and  _315
REMARK  127  A    between atoms: _318  and  _320
REMARK  128  A    between atoms: _320  and  _321
REMARK  129  A    between atoms: _320  and  _323
REMARK  130  A    between atoms: _323  and  _324
REMARK  131  A    between atoms: _324  and  _325
REMARK  132  A    between atoms: _325  and  _326
REMARK  133  A    between atoms: _326  and  _327
REMARK  134  A    between atoms: _331  and  _333
REMARK  135  A    between atoms: _333  and  _334
REMARK  136  A    between atoms: _336  and  _338
REMARK  137  A    between atoms: _338  and  _339
REMARK  138  A    between atoms: _338  and  _341
REMARK  139  A    between atoms: _341  and  _342
REMARK  140  A    between atoms: _347  and  _348
REMARK  141  A    between atoms: _350  and  _352
REMARK  142  A    between atoms: _352  and  _353
REMARK  143  A    between atoms: _356  and  _358
REMARK  144  A    between atoms: _358  and  _359
REMARK  145  A    between atoms: _358  and  _361
REMARK  146  A    between atoms: _361  and  _362
REMARK  147  A    between atoms: _372  and  _374
REMARK  148  A    between atoms: _374  and  _375
REMARK  149  A    between atoms: _374  and  _377
REMARK  150  A    between atoms: _377  and  _378
REMARK  151  A    between atoms: _384  and  _386
REMARK  152  A    between atoms: _386  and  _387
REMARK                            x       y       z     vdW  Elec       q    Type
REMARK                         _______ _______ _______ _____ _____    ______ ____
ROOT
ATOM      1  CA  GLU A   1      69.862  41.654  53.959  0.00  0.00    +0.134 C 
ENDROOT
BRANCH   1   2
ATOM      2  N   GLU A   1      70.300  43.004  54.249  0.00  0.00    -0.239 NA
ATOM      3  H   GLU A   1      70.047  43.394  55.179  0.00  0.00    +0.142 HD
ENDBRANCH   1   2
BRANCH   1   4
ATOM      4  C   GLU A   1      68.367  41.689  54.310  0.00  0.00    +0.224 C 
ATOM      5  O   GLU A   1      67.973  42.376  55.252  0.00  0.00    -0.287 OA
ENDBRANCH   1   4
BRANCH   1   6
ATOM      6  CB  GLU A   1      70.624  40.705  54.881  0.00  0.00    +0.037 C 
BRANCH   6   7
ATOM      7  CG  GLU A   1      70.945  39.361  54.305  0.00  0.00    +0.116 C 
BRANCH   7   8
ATOM      8  CD  GLU A   1      71.707  39.439  53.004  0.00  0.00    +0.365 C 
ATOM      9  OE2 GLU A   1      72.958  39.461  53.032  0.00  0.00    -0.246 OA
ATOM     10  OE1 GLU A   1      71.040  39.483  51.950  0.00  0.00    -0.246 OA
ENDBRANCH   7   8
ENDBRANCH   6   7
ENDBRANCH   1   6
TORSDOF 5
REMARK  Name = ../refined-set-2016/2bmk/2bmk_pocket.pdb
REMARK  152 active torsions:
REMARK  status: ('A' for Active; 'I' for Inactive)
REMARK    1  A    between atoms: _1  and  _3
REMARK    2  A    between atoms: _3  and  _4
REMARK    3  A    between atoms: _3  and  _6
REMARK    4  A    between atoms: _9  and  _11
REMARK    5  A    between atoms: _11  and  _12
REMARK    6  A    between atoms: _11  and  _14
REMARK    7  A    between atoms: _14  and  _15
REMARK    8  A    between atoms: _20  and  _22
REMARK    9  A    between atoms: _22  and  _23
REMARK   10  A    between atoms: _22  and  _25
REMARK   11  A    between atoms: _25  and  _26
REMARK   12  A    between atoms: _31  and  _32
REMARK   13  A    between atoms: _34  and  _36
REMARK   14  A    between atoms: _36  and  _37
REMARK   15  A    between atoms: _36  and  _39
REMARK   16  A    between atoms: _39  and  _40
REMARK   17  A    between atoms: _40  and  _41
REMARK   18  A    between atoms: _43  and  _45
REMARK   19  A    between atoms: _45  and  _46
REMARK   20  A    between atoms: _45  and  _48
REMARK   21  A    between atoms: _48  and  _49
REMARK   22  A    between atoms: _54  and  _56
REMARK   23  A    between atoms: _56  and  _57
REMARK   24  A    between atoms: _56  and  _59
REMARK   25  A    between atoms: _59  and  _60
REMARK   26  A    between atoms: _65  and  _66
REMARK   27  A    between atoms: _68  and  _70
REMARK   28  A    between atoms: _70  and  _71
REMARK   29  A    between atoms: _70  and  _73
REMARK   30  A    between atoms: _73  and  _74
REMARK   31  A    between atoms: _76  and  _78
REMARK   32  A    between atoms: _78  and  _79
REMARK   33  A    between atoms: _78  and  _81
REMARK   34  A    between atoms: _81  and  _82
REMARK   35  A    between atoms: _85  and  _87
REMARK   36  A    between atoms: _87  and  _88
REMARK   37  A    between atoms: _87  and  _90
REMARK   38  A    between atoms: _90  and  _91
REMARK   39  A    between atoms: _91  and  _92
REMARK   40  A    between atoms: _97  and  _99
REMARK   41  A    between atoms: _99  and  _100
REMARK   42  A    between atoms: _99  and  _102
REMARK   43  A    between atoms: _102  and  _103
REMARK   44  A    between atoms: _103  and  _104
REMARK   45  A    between atoms: _109  and  _111
REMARK   46  A    between atoms: _111  and  _112
REMARK   47  A    between atoms: _111  and  _114
REMARK   48  A    between atoms: _114  and  _115
REMARK   49  A    between atoms: _115  and  _116
REMARK   50  A    between atoms: _116  and  _117
REMARK   51  A    between atoms: _126  and  _128
REMARK   52  A    between atoms: _128  and  _129
REMARK   53  A    between atoms: _128  and  _131
REMARK   54  A    between atoms: _131  and  _132
REMARK   55  A    between atoms: _134  and  _136
REMARK   56  A    between atoms: _136  and  _137
REMARK   57  A    between atoms: _136  and  _139
REMARK   58  A    between atoms: _139  and  _140
REMARK   59  A    between atoms: _143  and  _145
REMARK   60  A    between atoms: _145  and  _146
REMARK   61  A    between atoms: _145  and  _148
REMARK   62  A    between atoms: _148  and  _149
REMARK   63  A    between atoms: _154  and  _155
REMARK   64  A    between atoms: _157  and  _159
REMARK   65  A    between atoms: _159  and  _160
REMARK   66  A    between atoms: _159  and  _162
REMARK   67  A    between atoms: _162  and  _163
REMARK   68  A    between atoms: _169  and  _171
REMARK   69  A    between atoms: _171  and  _172
REMARK   70  A    between atoms: _171  and  _174
REMARK   71  A    between atoms: _174  and  _175
REMARK   72  A    between atoms: _180  and  _181
REMARK   73  A    between atoms: _183  and  _185
REMARK   74  A    between atoms: _185  and  _186
REMARK   75  A    between atoms: _185  and  _188
REMARK   76  A    between atoms: _188  and  _189
REMARK   77  A    between atoms: _189  and  _190
REMARK   78  A    between atoms: _192  and  _194
REMARK   79  A    between atoms: _194  and  _195
REMARK   80  A    between atoms: _194  and  _197
REMARK   81  A    between atoms: _197  and  _198
REMARK   82  A    between atoms: _200  and  _202
REMARK   83  A    between atoms: _202  and  _203
REMARK   84  A    between atoms: _202  and  _205
REMARK   85  A    between atoms: _205  and  _206
REMARK   86  A    between atoms: _216  and  _218
REMARK   87  A    between atoms: _218  and  _219
REMARK   88  A    between atoms: _218  and  _221
REMARK   89  A    between atoms: _221  and  _222
REMARK   90  A    between atoms: _225  and  _227
REMARK   91  A    between atoms: _227  and  _228
REMARK   92  A    between atoms: _227  and  _230
REMARK   93  A    between atoms: _230  and  _231
REMARK   94  A    between atoms: _234  and  _236
REMARK   95  A    between atoms: _236  and  _237
REMARK   96  A    between atoms: _236  and  _239
REMARK   97  A    between atoms: _239  and  _240
REMARK   98  A    between atoms: _240  and  _241
REMARK   99  A    between atoms: _241  and  _242
REMARK  100  A    between atoms: _251  and  _253
REMARK  101  A    between atoms: _253  and  _254
REMARK  102  A    between atoms: _253  and  _256
REMARK  103  A    between atoms: _256  and  _257
REMARK  104  A    between atoms: _262  and  _264
REMARK  105  A    between atoms: _264  and  _265
REMARK  106  A    between atoms: _264  and  _267
REMARK  107  A    between atoms: _267  and  _268
REMARK  108  A    between atoms: _273  and  _275
REMARK  109  A    between atoms: _275  and  _276
REMARK  110  A    between atoms: _275  and  _278
REMARK  111  A    between atoms: _278  and  _279
REMARK  112  A    between atoms: _282  and  _284
REMARK  113  A    between atoms: _284  and  _285
REMARK  114  A    between atoms: _284  and  _287
REMARK  115  A    between atoms: _287  and  _288
REMARK  116  A    between atoms: _288  and  _289
REMARK  117  A    between atoms: _292  and  _294
REMARK  118  A    between atoms: _294  and  _295
REMARK  119  A    between atoms: _294  and  _297
REMARK  120  A    between atoms: _297  and  _298
REMARK  121  A    between atoms: _298  and  _299
REMARK  122  A    between atoms: _299  and  _300
REMARK  123  A    between atoms: _309  and  _311
REMARK  124  A    between atoms: _311  and  _312
REMARK  125  A    between atoms: _311  and  _314
REMARK  126  A    between atoms: _314  and  _315
REMARK  127  A    between atoms: _318  and  _320
REMARK  128  A    between atoms: _320  and  _321
REMARK  129  A    between atoms: _320  and  _323
REMARK  130  A    between atoms: _323  and  _324
REMARK  131  A    between atoms: _324  and  _325
REMARK  132  A    between atoms: _325  and  _326
REMARK  133  A    between atoms: _326  and  _327
REMARK  134  A    between atoms: _331  and  _333
REMARK  135  A    between atoms: _333  and  _334
REMARK  136  A    between atoms: _336  and  _338
REMARK  137  A    between atoms: _338  and  _339
REMARK  138  A    between atoms: _338  and  _341
REMARK  139  A    between atoms: _341  and  _342
REMARK  140  A    between atoms: _347  and  _348
REMARK  141  A    between atoms: _350  and  _352
REMARK  142  A    between atoms: _352  and  _353
REMARK  143  A    between atoms: _356  and  _358
REMARK  144  A    between atoms: _358  and  _359
REMARK  145  A    between atoms: _358  and  _361
REMARK  146  A    between atoms: _361  and  _362
REMARK  147  A    between atoms: _372  and  _374
REMARK  148  A    between atoms: _374  and  _375
REMARK  149  A    between atoms: _374  and  _377
REMARK  150  A    between atoms: _377  and  _378
REMARK  151  A    between atoms: _384  and  _386
REMARK  152  A    between atoms: _386  and  _387
REMARK                            x       y       z     vdW  Elec       q    Type
REMARK                         _______ _______ _______ _____ _____    ______ ____
ROOT
ATOM      1  CA  ASP A   2      72.825  42.433  65.953  0.00  0.00    +0.160 C 
ENDROOT
BRANCH   1   2
ATOM      2  C   ASP A   2      74.302  42.209  66.313  0.00  0.00    +0.241 C 
ATOM      3  O   ASP A   2      74.721  42.582  67.403  0.00  0.00    -0.273 OA
ATOM      4  N   LYS A   3      75.087  41.610  65.421  0.00  0.00    -0.297 N 
ATOM      5  H   LYS A   3      74.690  41.323  64.504  0.00  0.00    +0.150 HD
BRANCH   4   6
ATOM      6  CA  LYS A   3      76.514  41.345  65.709  0.00  0.00    +0.149 C 
BRANCH   6   7
ATOM      7  C   LYS A   3      77.302  42.658  65.706  0.00  0.00    +0.241 C 
ATOM      8  N   GLY A   4      78.443  42.637  66.387  0.00  0.00    -0.296 N 
ATOM      9  H   GLY A   4      78.731  41.765  66.875  0.00  0.00    +0.150 HD
ATOM     10  O   LYS A   3      76.889  43.656  65.102  0.00  0.00    -0.273 OA
BRANCH   8  11
ATOM     11  CA  GLY A   4      79.292  43.806  66.461  0.00  0.00    +0.163 C 
BRANCH  11  12
ATOM     12  C   GLY A   4      80.696  43.448  66.032  0.00  0.00    +0.229 C 
ATOM     13  O   GLY A   4      80.965  42.293  65.704  0.00  0.00    -0.286 OA
ENDBRANCH  11  12
ENDBRANCH   8  11
ENDBRANCH   6   7
BRANCH   6  14
ATOM     14  CB  LYS A   3      77.101  40.364  64.689  0.00  0.00    +0.029 C 
BRANCH  14  15
ATOM     15  CG  LYS A   3      77.409  40.991  63.328  0.00  0.00    +0.000 C 
BRANCH  15  16
ATOM     16  CD  LYS A   3      78.093  40.010  62.365  0.00  0.00    -0.024 C 
BRANCH  16  17
ATOM     17  CE  LYS A   3      79.464  39.542  62.863  0.00  0.00    -0.086 C 
BRANCH  17  18
ATOM     18  NZ  LYS A   3      79.899  38.275  62.253  0.00  0.00    +0.380 N 
ATOM     19  HZ1 LYS A   3      80.832  38.012  62.630  0.00  0.00    -0.089 HD
ATOM     20  HZ2 LYS A   3      79.210  37.529  62.478  0.00  0.00    -0.089 HD
ATOM     21  HZ3 LYS A   3      79.961  38.392  61.221  0.00  0.00    -0.089 HD
ENDBRANCH  17  18
ENDBRANCH  16  17
ENDBRANCH  15  16
ENDBRANCH  14  15
ENDBRANCH   6  14
ENDBRANCH   4   6
ENDBRANCH   1   2
BRANCH   1  24
ATOM     22  C   ARG A   1      71.844  43.715  67.784  0.00  0.00    +0.238 C 
ATOM     23  O   ARG A   1      71.707  42.724  68.514  0.00  0.00    -0.274 OA
ATOM     24  N   ASP A   2      72.367  43.668  66.567  0.00  0.00    -0.297 N 
ATOM     25  H   ASP A   2      72.453  44.553  66.028  0.00  0.00    +0.150 HD
BRANCH  22  26
ATOM     26  CA  ARG A   1      71.375  45.089  68.230  0.00  0.00    +0.145 C 
BRANCH  26  27
ATOM     27  N   ARG A   1      69.969  44.875  68.528  0.00  0.00    -0.238 NA
ATOM     28  H   ARG A   1      69.644  44.842  69.515  0.00  0.00    +0.142 HD
ENDBRANCH  26  27
BRANCH  26  29
ATOM     29  CB  ARG A   1      72.161  45.548  69.462  0.00  0.00    +0.030 C 
BRANCH  29  30
ATOM     30  CG  ARG A   1      73.536  46.119  69.103  0.00  0.00    +0.045 C 
BRANCH  30  31
ATOM     31  CD  ARG A   1      74.304  46.595  70.325  0.00  0.00    +0.174 C 
BRANCH  31  32
ATOM     32  NE  ARG A   1      74.683  45.470  71.171  0.00  0.00    -0.265 N 
ATOM     33  CZ  ARG A   1      75.511  45.564  72.203  0.00  0.00    +0.342 C 
ATOM     34  NH2 ARG A   1      75.808  44.490  72.913  0.00  0.00    -0.292 N 
ATOM     35 HH21 ARG A   1      76.457  44.565  73.722  0.00  0.00    +0.255 HD
ATOM     36 HH22 ARG A   1      75.392  43.570  72.663  0.00  0.00    +0.255 HD
ATOM     37  NH1 ARG A   1      76.049  46.735  72.519  0.00  0.00    -0.292 N 
ATOM     38 HH11 ARG A   1      76.698  46.808  73.328  0.00  0.00    +0.255 HD
ATOM     39 HH12 ARG A   1      75.822  47.580  71.957  0.00  0.00    +0.255 HD
ATOM     40  HE  ARG A   1      74.280  44.537  70.952  0.00  0.00    +0.259 HD
ENDBRANCH  31  32
ENDBRANCH  30  31
ENDBRANCH  29  30
ENDBRANCH  26  29
ENDBRANCH  22  26
ENDBRANCH   1  24
BRANCH   1  41
ATOM     41  CB  ASP A   2      72.576  42.554  64.439  0.00  0.00    +0.143 C 
BRANCH  41  42
ATOM     42  CG  ASP A   2      72.581  41.220  63.718  0.00  0.00    +0.367 C 
ATOM     43  OD2 ASP A   2      71.509  40.582  63.605  0.00  0.00    -0.246 OA
ATOM     44  OD1 ASP A   2      73.667  40.816  63.253  0.00  0.00    -0.246 OA
ENDBRANCH  41  42
ENDBRANCH   1  41
TORSDOF 19
REMARK  Name = ../refined-set-2016/2bmk/2bmk_pocket.pdb
REMARK  152 active torsions:
REMARK  status: ('A' for Active; 'I' for Inactive)
REMARK    1  A    between atoms: _1  and  _3
REMARK    2  A    between atoms: _3  and  _4
REMARK    3  A    between atoms: _3  and  _6
REMARK    4  A    between atoms: _9  and  _11
REMARK    5  A    between atoms: _11  and  _12
REMARK    6  A    between atoms: _11  and  _14
REMARK    7  A    between atoms: _14  and  _15
REMARK    8  A    between atoms: _20  and  _22
REMARK    9  A    between atoms: _22  and  _23
REMARK   10  A    between atoms: _22  and  _25
REMARK   11  A    between atoms: _25  and  _26
REMARK   12  A    between atoms: _31  and  _32
REMARK   13  A    between atoms: _34  and  _36
REMARK   14  A    between atoms: _36  and  _37
REMARK   15  A    between atoms: _36  and  _39
REMARK   16  A    between atoms: _39  and  _40
REMARK   17  A    between atoms: _40  and  _41
REMARK   18  A    between atoms: _43  and  _45
REMARK   19  A    between atoms: _45  and  _46
REMARK   20  A    between atoms: _45  and  _48
REMARK   21  A    between atoms: _48  and  _49
REMARK   22  A    between atoms: _54  and  _56
REMARK   23  A    between atoms: _56  and  _57
REMARK   24  A    between atoms: _56  and  _59
REMARK   25  A    between atoms: _59  and  _60
REMARK   26  A    between atoms: _65  and  _66
REMARK   27  A    between atoms: _68  and  _70
REMARK   28  A    between atoms: _70  and  _71
REMARK   29  A    between atoms: _70  and  _73
REMARK   30  A    between atoms: _73  and  _74
REMARK   31  A    between atoms: _76  and  _78
REMARK   32  A    between atoms: _78  and  _79
REMARK   33  A    between atoms: _78  and  _81
REMARK   34  A    between atoms: _81  and  _82
REMARK   35  A    between atoms: _85  and  _87
REMARK   36  A    between atoms: _87  and  _88
REMARK   37  A    between atoms: _87  and  _90
REMARK   38  A    between atoms: _90  and  _91
REMARK   39  A    between atoms: _91  and  _92
REMARK   40  A    between atoms: _97  and  _99
REMARK   41  A    between atoms: _99  and  _100
REMARK   42  A    between atoms: _99  and  _102
REMARK   43  A    between atoms: _102  and  _103
REMARK   44  A    between atoms: _103  and  _104
REMARK   45  A    between atoms: _109  and  _111
REMARK   46  A    between atoms: _111  and  _112
REMARK   47  A    between atoms: _111  and  _114
REMARK   48  A    between atoms: _114  and  _115
REMARK   49  A    between atoms: _115  and  _116
REMARK   50  A    between atoms: _116  and  _117
REMARK   51  A    between atoms: _126  and  _128
REMARK   52  A    between atoms: _128  and  _129
REMARK   53  A    between atoms: _128  and  _131
REMARK   54  A    between atoms: _131  and  _132
REMARK   55  A    between atoms: _134  and  _136
REMARK   56  A    between atoms: _136  and  _137
REMARK   57  A    between atoms: _136  and  _139
REMARK   58  A    between atoms: _139  and  _140
REMARK   59  A    between atoms: _143  and  _145
REMARK   60  A    between atoms: _145  and  _146
REMARK   61  A    between atoms: _145  and  _148
REMARK   62  A    between atoms: _148  and  _149
REMARK   63  A    between atoms: _154  and  _155
REMARK   64  A    between atoms: _157  and  _159
REMARK   65  A    between atoms: _159  and  _160
REMARK   66  A    between atoms: _159  and  _162
REMARK   67  A    between atoms: _162  and  _163
REMARK   68  A    between atoms: _169  and  _171
REMARK   69  A    between atoms: _171  and  _172
REMARK   70  A    between atoms: _171  and  _174
REMARK   71  A    between atoms: _174  and  _175
REMARK   72  A    between atoms: _180  and  _181
REMARK   73  A    between atoms: _183  and  _185
REMARK   74  A    between atoms: _185  and  _186
REMARK   75  A    between atoms: _185  and  _188
REMARK   76  A    between atoms: _188  and  _189
REMARK   77  A    between atoms: _189  and  _190
REMARK   78  A    between atoms: _192  and  _194
REMARK   79  A    between atoms: _194  and  _195
REMARK   80  A    between atoms: _194  and  _197
REMARK   81  A    between atoms: _197  and  _198
REMARK   82  A    between atoms: _200  and  _202
REMARK   83  A    between atoms: _202  and  _203
REMARK   84  A    between atoms: _202  and  _205
REMARK   85  A    between atoms: _205  and  _206
REMARK   86  A    between atoms: _216  and  _218
REMARK   87  A    between atoms: _218  and  _219
REMARK   88  A    between atoms: _218  and  _221
REMARK   89  A    between atoms: _221  and  _222
REMARK   90  A    between atoms: _225  and  _227
REMARK   91  A    between atoms: _227  and  _228
REMARK   92  A    between atoms: _227  and  _230
REMARK   93  A    between atoms: _230  and  _231
REMARK   94  A    between atoms: _234  and  _236
REMARK   95  A    between atoms: _236  and  _237
REMARK   96  A    between atoms: _236  and  _239
REMARK   97  A    between atoms: _239  and  _240
REMARK   98  A    between atoms: _240  and  _241
REMARK   99  A    between atoms: _241  and  _242
REMARK  100  A    between atoms: _251  and  _253
REMARK  101  A    between atoms: _253  and  _254
REMARK  102  A    between atoms: _253  and  _256
REMARK  103  A    between atoms: _256  and  _257
REMARK  104  A    between atoms: _262  and  _264
REMARK  105  A    between atoms: _264  and  _265
REMARK  106  A    between atoms: _264  and  _267
REMARK  107  A    between atoms: _267  and  _268
REMARK  108  A    between atoms: _273  and  _275
REMARK  109  A    between atoms: _275  and  _276
REMARK  110  A    between atoms: _275  and  _278
REMARK  111  A    between atoms: _278  and  _279
REMARK  112  A    between atoms: _282  and  _284
REMARK  113  A    between atoms: _284  and  _285
REMARK  114  A    between atoms: _284  and  _287
REMARK  115  A    between atoms: _287  and  _288
REMARK  116  A    between atoms: _288  and  _289
REMARK  117  A    between atoms: _292  and  _294
REMARK  118  A    between atoms: _294  and  _295
REMARK  119  A    between atoms: _294  and  _297
REMARK  120  A    between atoms: _297  and  _298
REMARK  121  A    between atoms: _298  and  _299
REMARK  122  A    between atoms: _299  and  _300
REMARK  123  A    between atoms: _309  and  _311
REMARK  124  A    between atoms: _311  and  _312
REMARK  125  A    between atoms: _311  and  _314
REMARK  126  A    between atoms: _314  and  _315
REMARK  127  A    between atoms: _318  and  _320
REMARK  128  A    between atoms: _320  and  _321
REMARK  129  A    between atoms: _320  and  _323
REMARK  130  A    between atoms: _323  and  _324
REMARK  131  A    between atoms: _324  and  _325
REMARK  132  A    between atoms: _325  and  _326
REMARK  133  A    between atoms: _326  and  _327
REMARK  134  A    between atoms: _331  and  _333
REMARK  135  A    between atoms: _333  and  _334
REMARK  136  A    between atoms: _336  and  _338
REMARK  137  A    between atoms: _338  and  _339
REMARK  138  A    between atoms: _338  and  _341
REMARK  139  A    between atoms: _341  and  _342
REMARK  140  A    between atoms: _347  and  _348
REMARK  141  A    between atoms: _350  and  _352
REMARK  142  A    between atoms: _352  and  _353
REMARK  143  A    between atoms: _356  and  _358
REMARK  144  A    between atoms: _358  and  _359
REMARK  145  A    between atoms: _358  and  _361
REMARK  146  A    between atoms: _361  and  _362
REMARK  147  A    between atoms: _372  and  _374
REMARK  148  A    between atoms: _374  and  _375
REMARK  149  A    between atoms: _374  and  _377
REMARK  150  A    between atoms: _377  and  _378
REMARK  151  A    between atoms: _384  and  _386
REMARK  152  A    between atoms: _386  and  _387
REMARK                            x       y       z     vdW  Elec       q    Type
REMARK                         _______ _______ _______ _____ _____    ______ ____
ROOT
ATOM      1  CG  TYR A   1      80.640  35.270  69.991  0.00  0.00    -0.020 A 
ATOM      2  CD2 TYR A   1      81.826  34.769  70.513  0.00  0.00    -0.001 A 
ATOM      3  CE2 TYR A   1      83.011  34.824  69.789  0.00  0.00    +0.036 A 
ATOM      4  CZ  TYR A   1      83.015  35.382  68.528  0.00  0.00    +0.134 A 
ATOM      5  CE1 TYR A   1      81.848  35.887  67.980  0.00  0.00    +0.036 A 
ATOM      6  CD1 TYR A   1      80.667  35.828  68.713  0.00  0.00    -0.001 A 
ENDROOT
BRANCH   4   7
ATOM      7  OH  TYR A   1      84.194  35.435  67.820  0.00  0.00    -0.506 OA
ATOM      8  HH  TYR A   1      84.920  35.032  68.359  0.00  0.00    +0.292 HD
ENDBRANCH   4   7
BRANCH   1   9
ATOM      9  CB  TYR A   1      79.370  35.238  70.797  0.00  0.00    +0.051 C 
BRANCH   9  10
ATOM     10  CA  TYR A   1      78.830  36.635  71.086  0.00  0.00    +0.137 C 
BRANCH  10  11
ATOM     11  N   TYR A   1      79.904  37.459  71.622  0.00  0.00    -0.239 NA
ATOM     12  H   TYR A   1      80.836  37.022  71.772  0.00  0.00    +0.142 HD
ENDBRANCH  10  11
BRANCH  10  13
ATOM     13  C   TYR A   1      77.629  36.548  72.019  0.00  0.00    +0.224 C 
ATOM     14  O   TYR A   1      76.481  36.668  71.584  0.00  0.00    -0.287 OA
ENDBRANCH  10  13
ENDBRANCH   9  10
ENDBRANCH   1   9
TORSDOF 5
REMARK  Name = ../refined-set-2016/2bmk/2bmk_pocket.pdb
REMARK  152 active torsions:
REMARK  status: ('A' for Active; 'I' for Inactive)
REMARK    1  A    between atoms: _1  and  _3
REMARK    2  A    between atoms: _3  and  _4
REMARK    3  A    between atoms: _3  and  _6
REMARK    4  A    between atoms: _9  and  _11
REMARK    5  A    between atoms: _11  and  _12
REMARK    6  A    between atoms: _11  and  _14
REMARK    7  A    between atoms: _14  and  _15
REMARK    8  A    between atoms: _20  and  _22
REMARK    9  A    between atoms: _22  and  _23
REMARK   10  A    between atoms: _22  and  _25
REMARK   11  A    between atoms: _25  and  _26
REMARK   12  A    between atoms: _31  and  _32
REMARK   13  A    between atoms: _34  and  _36
REMARK   14  A    between atoms: _36  and  _37
REMARK   15  A    between atoms: _36  and  _39
REMARK   16  A    between atoms: _39  and  _40
REMARK   17  A    between atoms: _40  and  _41
REMARK   18  A    between atoms: _43  and  _45
REMARK   19  A    between atoms: _45  and  _46
REMARK   20  A    between atoms: _45  and  _48
REMARK   21  A    between atoms: _48  and  _49
REMARK   22  A    between atoms: _54  and  _56
REMARK   23  A    between atoms: _56  and  _57
REMARK   24  A    between atoms: _56  and  _59
REMARK   25  A    between atoms: _59  and  _60
REMARK   26  A    between atoms: _65  and  _66
REMARK   27  A    between atoms: _68  and  _70
REMARK   28  A    between atoms: _70  and  _71
REMARK   29  A    between atoms: _70  and  _73
REMARK   30  A    between atoms: _73  and  _74
REMARK   31  A    between atoms: _76  and  _78
REMARK   32  A    between atoms: _78  and  _79
REMARK   33  A    between atoms: _78  and  _81
REMARK   34  A    between atoms: _81  and  _82
REMARK   35  A    between atoms: _85  and  _87
REMARK   36  A    between atoms: _87  and  _88
REMARK   37  A    between atoms: _87  and  _90
REMARK   38  A    between atoms: _90  and  _91
REMARK   39  A    between atoms: _91  and  _92
REMARK   40  A    between atoms: _97  and  _99
REMARK   41  A    between atoms: _99  and  _100
REMARK   42  A    between atoms: _99  and  _102
REMARK   43  A    between atoms: _102  and  _103
REMARK   44  A    between atoms: _103  and  _104
REMARK   45  A    between atoms: _109  and  _111
REMARK   46  A    between atoms: _111  and  _112
REMARK   47  A    between atoms: _111  and  _114
REMARK   48  A    between atoms: _114  and  _115
REMARK   49  A    between atoms: _115  and  _116
REMARK   50  A    between atoms: _116  and  _117
REMARK   51  A    between atoms: _126  and  _128
REMARK   52  A    between atoms: _128  and  _129
REMARK   53  A    between atoms: _128  and  _131
REMARK   54  A    between atoms: _131  and  _132
REMARK   55  A    between atoms: _134  and  _136
REMARK   56  A    between atoms: _136  and  _137
REMARK   57  A    between atoms: _136  and  _139
REMARK   58  A    between atoms: _139  and  _140
REMARK   59  A    between atoms: _143  and  _145
REMARK   60  A    between atoms: _145  and  _146
REMARK   61  A    between atoms: _145  and  _148
REMARK   62  A    between atoms: _148  and  _149
REMARK   63  A    between atoms: _154  and  _155
REMARK   64  A    between atoms: _157  and  _159
REMARK   65  A    between atoms: _159  and  _160
REMARK   66  A    between atoms: _159  and  _162
REMARK   67  A    between atoms: _162  and  _163
REMARK   68  A    between atoms: _169  and  _171
REMARK   69  A    between atoms: _171  and  _172
REMARK   70  A    between atoms: _171  and  _174
REMARK   71  A    between atoms: _174  and  _175
REMARK   72  A    between atoms: _180  and  _181
REMARK   73  A    between atoms: _183  and  _185
REMARK   74  A    between atoms: _185  and  _186
REMARK   75  A    between atoms: _185  and  _188
REMARK   76  A    between atoms: _188  and  _189
REMARK   77  A    between atoms: _189  and  _190
REMARK   78  A    between atoms: _192  and  _194
REMARK   79  A    between atoms: _194  and  _195
REMARK   80  A    between atoms: _194  and  _197
REMARK   81  A    between atoms: _197  and  _198
REMARK   82  A    between atoms: _200  and  _202
REMARK   83  A    between atoms: _202  and  _203
REMARK   84  A    between atoms: _202  and  _205
REMARK   85  A    between atoms: _205  and  _206
REMARK   86  A    between atoms: _216  and  _218
REMARK   87  A    between atoms: _218  and  _219
REMARK   88  A    between atoms: _218  and  _221
REMARK   89  A    between atoms: _221  and  _222
REMARK   90  A    between atoms: _225  and  _227
REMARK   91  A    between atoms: _227  and  _228
REMARK   92  A    between atoms: _227  and  _230
REMARK   93  A    between atoms: _230  and  _231
REMARK   94  A    between atoms: _234  and  _236
REMARK   95  A    between atoms: _236  and  _237
REMARK   96  A    between atoms: _236  and  _239
REMARK   97  A    between atoms: _239  and  _240
REMARK   98  A    between atoms: _240  and  _241
REMARK   99  A    between atoms: _241  and  _242
REMARK  100  A    between atoms: _251  and  _253
REMARK  101  A    between atoms: _253  and  _254
REMARK  102  A    between atoms: _253  and  _256
REMARK  103  A    between atoms: _256  and  _257
REMARK  104  A    between atoms: _262  and  _264
REMARK  105  A    between atoms: _264  and  _265
REMARK  106  A    between atoms: _264  and  _267
REMARK  107  A    between atoms: _267  and  _268
REMARK  108  A    between atoms: _273  and  _275
REMARK  109  A    between atoms: _275  and  _276
REMARK  110  A    between atoms: _275  and  _278
REMARK  111  A    between atoms: _278  and  _279
REMARK  112  A    between atoms: _282  and  _284
REMARK  113  A    between atoms: _284  and  _285
REMARK  114  A    between atoms: _284  and  _287
REMARK  115  A    between atoms: _287  and  _288
REMARK  116  A    between atoms: _288  and  _289
REMARK  117  A    between atoms: _292  and  _294
REMARK  118  A    between atoms: _294  and  _295
REMARK  119  A    between atoms: _294  and  _297
REMARK  120  A    between atoms: _297  and  _298
REMARK  121  A    between atoms: _298  and  _299
REMARK  122  A    between atoms: _299  and  _300
REMARK  123  A    between atoms: _309  and  _311
REMARK  124  A    between atoms: _311  and  _312
REMARK  125  A    between atoms: _311  and  _314
REMARK  126  A    between atoms: _314  and  _315
REMARK  127  A    between atoms: _318  and  _320
REMARK  128  A    between atoms: _320  and  _321
REMARK  129  A    between atoms: _320  and  _323
REMARK  130  A    between atoms: _323  and  _324
REMARK  131  A    between atoms: _324  and  _325
REMARK  132  A    between atoms: _325  and  _326
REMARK  133  A    between atoms: _326  and  _327
REMARK  134  A    between atoms: _331  and  _333
REMARK  135  A    between atoms: _333  and  _334
REMARK  136  A    between atoms: _336  and  _338
REMARK  137  A    between atoms: _338  and  _339
REMARK  138  A    between atoms: _338  and  _341
REMARK  139  A    between atoms: _341  and  _342
REMARK  140  A    between atoms: _347  and  _348
REMARK  141  A    between atoms: _350  and  _352
REMARK  142  A    between atoms: _352  and  _353
REMARK  143  A    between atoms: _356  and  _358
REMARK  144  A    between atoms: _358  and  _359
REMARK  145  A    between atoms: _358  and  _361
REMARK  146  A    between atoms: _361  and  _362
REMARK  147  A    between atoms: _372  and  _374
REMARK  148  A    between atoms: _374  and  _375
REMARK  149  A    between atoms: _374  and  _377
REMARK  150  A    between atoms: _377  and  _378
REMARK  151  A    between atoms: _384  and  _386
REMARK  152  A    between atoms: _386  and  _387
REMARK                            x       y       z     vdW  Elec       q    Type
REMARK                         _______ _______ _______ _____ _____    ______ ____
ROOT
ATOM      1  CA  TRP A   2      74.536  39.184  69.845  0.00  0.00    +0.153 C 
ENDROOT
BRANCH   1   4
ATOM      2  C   ALA A   1      74.996  39.965  72.080  0.00  0.00    +0.238 C 
ATOM      3  O   ALA A   1      74.231  40.918  71.921  0.00  0.00    -0.274 OA
ATOM      4  N   TRP A   2      75.208  39.059  71.133  0.00  0.00    -0.297 N 
ATOM      5  H   TRP A   2      75.852  38.262  71.309  0.00  0.00    +0.150 HD
BRANCH   2   6
ATOM      6  CA  ALA A   1      75.734  39.788  73.403  0.00  0.00    +0.145 C 
ATOM      7  CB  ALA A   1      76.679  40.975  73.623  0.00  0.00    +0.028 C 
BRANCH   6   8
ATOM      8  N   ALA A   1      76.468  38.534  73.544  0.00  0.00    -0.238 NA
ATOM      9  H   ALA A   1      77.422  38.457  73.137  0.00  0.00    +0.142 HD
ENDBRANCH   6   8
ENDBRANCH   2   6
ENDBRANCH   1   4
BRANCH   1  10
ATOM     10  C   TRP A   2      73.049  38.844  69.953  0.00  0.00    +0.241 C 
ATOM     11  O   TRP A   2      72.667  37.826  70.536  0.00  0.00    -0.273 OA
ATOM     12  N   PHE A   3      72.214  39.725  69.408  0.00  0.00    -0.297 N 
ATOM     13  H   PHE A   3      72.606  40.574  68.953  0.00  0.00    +0.150 HD
BRANCH  12  14
ATOM     14  CA  PHE A   3      70.767  39.539  69.427  0.00  0.00    +0.153 C 
BRANCH  14  15
ATOM     15  C   PHE A   3      70.230  39.481  70.863  0.00  0.00    +0.241 C 
ATOM     16  N   ALA A   4      70.978  40.069  71.793  0.00  0.00    -0.298 N 
ATOM     17  H   ALA A   4      71.858  40.544  71.508  0.00  0.00    +0.150 HD
ATOM     18  O   PHE A   3      69.157  38.930  71.116  0.00  0.00    -0.273 OA
BRANCH  16  19
ATOM     19  CA  ALA A   4      70.597  40.066  73.200  0.00  0.00    +0.137 C 
ATOM     20  CB  ALA A   4      71.845  39.867  74.057  0.00  0.00    +0.030 C 
BRANCH  19  21
ATOM     21  C   ALA A   4      69.846  41.324  73.646  0.00  0.00    +0.227 C 
ATOM     22  O   ALA A   4      69.133  41.298  74.649  0.00  0.00    -0.286 OA
ENDBRANCH  19  21
ENDBRANCH  16  19
ENDBRANCH  14  15
BRANCH  14  23
ATOM     23  CB  PHE A   3      70.386  38.252  68.668  0.00  0.00    +0.055 C 
BRANCH  23  24
ATOM     24  CG  PHE A   3      69.508  38.494  67.470  0.00  0.00    -0.020 A 
ATOM     25  CD2 PHE A   3      68.129  38.602  67.617  0.00  0.00    -0.004 A 
ATOM     26  CE2 PHE A   3      67.310  38.913  66.523  0.00  0.00    -0.000 A 
ATOM     27  CZ  PHE A   3      67.875  39.115  65.267  0.00  0.00    -0.000 A 
ATOM     28  CE1 PHE A   3      69.258  39.004  65.108  0.00  0.00    -0.000 A 
ATOM     29  CD1 PHE A   3      70.064  38.694  66.208  0.00  0.00    -0.004 A 
ENDBRANCH  23  24
ENDBRANCH  14  23
ENDBRANCH  12  14
ENDBRANCH   1  10
BRANCH   1  30
ATOM     30  CB  TRP A   2      75.230  38.301  68.795  0.00  0.00    +0.057 C 
BRANCH  30  31
ATOM     31  CG  TRP A   2      76.668  38.736  68.476  0.00  0.00    -0.002 A 
ATOM     32  CD1 TRP A   2      77.383  39.718  69.098  0.00  0.00    +0.068 A 
ATOM     33  NE1 TRP A   2      78.638  39.821  68.546  0.00  0.00    -0.352 N 
ATOM     34  HE1 TRP A   2      79.374  40.494  68.840  0.00  0.00    +0.166 HD
ATOM     35  CE2 TRP A   2      78.762  38.893  67.546  0.00  0.00    +0.056 A 
ATOM     36  CZ2 TRP A   2      79.846  38.613  66.705  0.00  0.00    +0.017 A 
ATOM     37  CH2 TRP A   2      79.691  37.614  65.778  0.00  0.00    +0.001 A 
ATOM     38  CZ3 TRP A   2      78.487  36.895  65.671  0.00  0.00    +0.000 A 
ATOM     39  CE3 TRP A   2      77.405  37.175  66.512  0.00  0.00    +0.001 A 
ATOM     40  CD2 TRP A   2      77.539  38.190  67.469  0.00  0.00    +0.013 A 
ENDBRANCH  30  31
ENDBRANCH   1  30
TORSDOF 12
REMARK  Name = ../refined-set-2016/2bmk/2bmk_pocket.pdb
REMARK  152 active torsions:
REMARK  status: ('A' for Active; 'I' for Inactive)
REMARK    1  A    between atoms: _1  and  _3
REMARK    2  A    between atoms: _3  and  _4
REMARK    3  A    between atoms: _3  and  _6
REMARK    4  A    between atoms: _9  and  _11
REMARK    5  A    between atoms: _11  and  _12
REMARK    6  A    between atoms: _11  and  _14
REMARK    7  A    between atoms: _14  and  _15
REMARK    8  A    between atoms: _20  and  _22
REMARK    9  A    between atoms: _22  and  _23
REMARK   10  A    between atoms: _22  and  _25
REMARK   11  A    between atoms: _25  and  _26
REMARK   12  A    between atoms: _31  and  _32
REMARK   13  A    between atoms: _34  and  _36
REMARK   14  A    between atoms: _36  and  _37
REMARK   15  A    between atoms: _36  and  _39
REMARK   16  A    between atoms: _39  and  _40
REMARK   17  A    between atoms: _40  and  _41
REMARK   18  A    between atoms: _43  and  _45
REMARK   19  A    between atoms: _45  and  _46
REMARK   20  A    between atoms: _45  and  _48
REMARK   21  A    between atoms: _48  and  _49
REMARK   22  A    between atoms: _54  and  _56
REMARK   23  A    between atoms: _56  and  _57
REMARK   24  A    between atoms: _56  and  _59
REMARK   25  A    between atoms: _59  and  _60
REMARK   26  A    between atoms: _65  and  _66
REMARK   27  A    between atoms: _68  and  _70
REMARK   28  A    between atoms: _70  and  _71
REMARK   29  A    between atoms: _70  and  _73
REMARK   30  A    between atoms: _73  and  _74
REMARK   31  A    between atoms: _76  and  _78
REMARK   32  A    between atoms: _78  and  _79
REMARK   33  A    between atoms: _78  and  _81
REMARK   34  A    between atoms: _81  and  _82
REMARK   35  A    between atoms: _85  and  _87
REMARK   36  A    between atoms: _87  and  _88
REMARK   37  A    between atoms: _87  and  _90
REMARK   38  A    between atoms: _90  and  _91
REMARK   39  A    between atoms: _91  and  _92
REMARK   40  A    between atoms: _97  and  _99
REMARK   41  A    between atoms: _99  and  _100
REMARK   42  A    between atoms: _99  and  _102
REMARK   43  A    between atoms: _102  and  _103
REMARK   44  A    between atoms: _103  and  _104
REMARK   45  A    between atoms: _109  and  _111
REMARK   46  A    between atoms: _111  and  _112
REMARK   47  A    between atoms: _111  and  _114
REMARK   48  A    between atoms: _114  and  _115
REMARK   49  A    between atoms: _115  and  _116
REMARK   50  A    between atoms: _116  and  _117
REMARK   51  A    between atoms: _126  and  _128
REMARK   52  A    between atoms: _128  and  _129
REMARK   53  A    between atoms: _128  and  _131
REMARK   54  A    between atoms: _131  and  _132
REMARK   55  A    between atoms: _134  and  _136
REMARK   56  A    between atoms: _136  and  _137
REMARK   57  A    between atoms: _136  and  _139
REMARK   58  A    between atoms: _139  and  _140
REMARK   59  A    between atoms: _143  and  _145
REMARK   60  A    between atoms: _145  and  _146
REMARK   61  A    between atoms: _145  and  _148
REMARK   62  A    between atoms: _148  and  _149
REMARK   63  A    between atoms: _154  and  _155
REMARK   64  A    between atoms: _157  and  _159
REMARK   65  A    between atoms: _159  and  _160
REMARK   66  A    between atoms: _159  and  _162
REMARK   67  A    between atoms: _162  and  _163
REMARK   68  A    between atoms: _169  and  _171
REMARK   69  A    between atoms: _171  and  _172
REMARK   70  A    between atoms: _171  and  _174
REMARK   71  A    between atoms: _174  and  _175
REMARK   72  A    between atoms: _180  and  _181
REMARK   73  A    between atoms: _183  and  _185
REMARK   74  A    between atoms: _185  and  _186
REMARK   75  A    between atoms: _185  and  _188
REMARK   76  A    between atoms: _188  and  _189
REMARK   77  A    between atoms: _189  and  _190
REMARK   78  A    between atoms: _192  and  _194
REMARK   79  A    between atoms: _194  and  _195
REMARK   80  A    between atoms: _194  and  _197
REMARK   81  A    between atoms: _197  and  _198
REMARK   82  A    between atoms: _200  and  _202
REMARK   83  A    between atoms: _202  and  _203
REMARK   84  A    between atoms: _202  and  _205
REMARK   85  A    between atoms: _205  and  _206
REMARK   86  A    between atoms: _216  and  _218
REMARK   87  A    between atoms: _218  and  _219
REMARK   88  A    between atoms: _218  and  _221
REMARK   89  A    between atoms: _221  and  _222
REMARK   90  A    between atoms: _225  and  _227
REMARK   91  A    between atoms: _227  and  _228
REMARK   92  A    between atoms: _227  and  _230
REMARK   93  A    between atoms: _230  and  _231
REMARK   94  A    between atoms: _234  and  _236
REMARK   95  A    between atoms: _236  and  _237
REMARK   96  A    between atoms: _236  and  _239
REMARK   97  A    between atoms: _239  and  _240
REMARK   98  A    between atoms: _240  and  _241
REMARK   99  A    between atoms: _241  and  _242
REMARK  100  A    between atoms: _251  and  _253
REMARK  101  A    between atoms: _253  and  _254
REMARK  102  A    between atoms: _253  and  _256
REMARK  103  A    between atoms: _256  and  _257
REMARK  104  A    between atoms: _262  and  _264
REMARK  105  A    between atoms: _264  and  _265
REMARK  106  A    between atoms: _264  and  _267
REMARK  107  A    between atoms: _267  and  _268
REMARK  108  A    between atoms: _273  and  _275
REMARK  109  A    between atoms: _275  and  _276
REMARK  110  A    between atoms: _275  and  _278
REMARK  111  A    between atoms: _278  and  _279
REMARK  112  A    between atoms: _282  and  _284
REMARK  113  A    between atoms: _284  and  _285
REMARK  114  A    between atoms: _284  and  _287
REMARK  115  A    between atoms: _287  and  _288
REMARK  116  A    between atoms: _288  and  _289
REMARK  117  A    between atoms: _292  and  _294
REMARK  118  A    between atoms: _294  and  _295
REMARK  119  A    between atoms: _294  and  _297
REMARK  120  A    between atoms: _297  and  _298
REMARK  121  A    between atoms: _298  and  _299
REMARK  122  A    between atoms: _299  and  _300
REMARK  123  A    between atoms: _309  and  _311
REMARK  124  A    between atoms: _311  and  _312
REMARK  125  A    between atoms: _311  and  _314
REMARK  126  A    between atoms: _314  and  _315
REMARK  127  A    between atoms: _318  and  _320
REMARK  128  A    between atoms: _320  and  _321
REMARK  129  A    between atoms: _320  and  _323
REMARK  130  A    between atoms: _323  and  _324
REMARK  131  A    between atoms: _324  and  _325
REMARK  132  A    between atoms: _325  and  _326
REMARK  133  A    between atoms: _326  and  _327
REMARK  134  A    between atoms: _331  and  _333
REMARK  135  A    between atoms: _333  and  _334
REMARK  136  A    between atoms: _336  and  _338
REMARK  137  A    between atoms: _338  and  _339
REMARK  138  A    between atoms: _338  and  _341
REMARK  139  A    between atoms: _341  and  _342
REMARK  140  A    between atoms: _347  and  _348
REMARK  141  A    between atoms: _350  and  _352
REMARK  142  A    between atoms: _352  and  _353
REMARK  143  A    between atoms: _356  and  _358
REMARK  144  A    between atoms: _358  and  _359
REMARK  145  A    between atoms: _358  and  _361
REMARK  146  A    between atoms: _361  and  _362
REMARK  147  A    between atoms: _372  and  _374
REMARK  148  A    between atoms: _374  and  _375
REMARK  149  A    between atoms: _374  and  _377
REMARK  150  A    between atoms: _377  and  _378
REMARK  151  A    between atoms: _384  and  _386
REMARK  152  A    between atoms: _386  and  _387
REMARK                            x       y       z     vdW  Elec       q    Type
REMARK                         _______ _______ _______ _____ _____    ______ ____
ROOT
ATOM      1  O   HOH     1      77.079  33.258  68.431  0.00  0.00    +0.000 OA
ENDROOT
TORSDOF 0
REMARK  Name = ../refined-set-2016/2bmk/2bmk_pocket.pdb
REMARK  152 active torsions:
REMARK  status: ('A' for Active; 'I' for Inactive)
REMARK    1  A    between atoms: _1  and  _3
REMARK    2  A    between atoms: _3  and  _4
REMARK    3  A    between atoms: _3  and  _6
REMARK    4  A    between atoms: _9  and  _11
REMARK    5  A    between atoms: _11  and  _12
REMARK    6  A    between atoms: _11  and  _14
REMARK    7  A    between atoms: _14  and  _15
REMARK    8  A    between atoms: _20  and  _22
REMARK    9  A    between atoms: _22  and  _23
REMARK   10  A    between atoms: _22  and  _25
REMARK   11  A    between atoms: _25  and  _26
REMARK   12  A    between atoms: _31  and  _32
REMARK   13  A    between atoms: _34  and  _36
REMARK   14  A    between atoms: _36  and  _37
REMARK   15  A    between atoms: _36  and  _39
REMARK   16  A    between atoms: _39  and  _40
REMARK   17  A    between atoms: _40  and  _41
REMARK   18  A    between atoms: _43  and  _45
REMARK   19  A    between atoms: _45  and  _46
REMARK   20  A    between atoms: _45  and  _48
REMARK   21  A    between atoms: _48  and  _49
REMARK   22  A    between atoms: _54  and  _56
REMARK   23  A    between atoms: _56  and  _57
REMARK   24  A    between atoms: _56  and  _59
REMARK   25  A    between atoms: _59  and  _60
REMARK   26  A    between atoms: _65  and  _66
REMARK   27  A    between atoms: _68  and  _70
REMARK   28  A    between atoms: _70  and  _71
REMARK   29  A    between atoms: _70  and  _73
REMARK   30  A    between atoms: _73  and  _74
REMARK   31  A    between atoms: _76  and  _78
REMARK   32  A    between atoms: _78  and  _79
REMARK   33  A    between atoms: _78  and  _81
REMARK   34  A    between atoms: _81  and  _82
REMARK   35  A    between atoms: _85  and  _87
REMARK   36  A    between atoms: _87  and  _88
REMARK   37  A    between atoms: _87  and  _90
REMARK   38  A    between atoms: _90  and  _91
REMARK   39  A    between atoms: _91  and  _92
REMARK   40  A    between atoms: _97  and  _99
REMARK   41  A    between atoms: _99  and  _100
REMARK   42  A    between atoms: _99  and  _102
REMARK   43  A    between atoms: _102  and  _103
REMARK   44  A    between atoms: _103  and  _104
REMARK   45  A    between atoms: _109  and  _111
REMARK   46  A    between atoms: _111  and  _112
REMARK   47  A    between atoms: _111  and  _114
REMARK   48  A    between atoms: _114  and  _115
REMARK   49  A    between atoms: _115  and  _116
REMARK   50  A    between atoms: _116  and  _117
REMARK   51  A    between atoms: _126  and  _128
REMARK   52  A    between atoms: _128  and  _129
REMARK   53  A    between atoms: _128  and  _131
REMARK   54  A    between atoms: _131  and  _132
REMARK   55  A    between atoms: _134  and  _136
REMARK   56  A    between atoms: _136  and  _137
REMARK   57  A    between atoms: _136  and  _139
REMARK   58  A    between atoms: _139  and  _140
REMARK   59  A    between atoms: _143  and  _145
REMARK   60  A    between atoms: _145  and  _146
REMARK   61  A    between atoms: _145  and  _148
REMARK   62  A    between atoms: _148  and  _149
REMARK   63  A    between atoms: _154  and  _155
REMARK   64  A    between atoms: _157  and  _159
REMARK   65  A    between atoms: _159  and  _160
REMARK   66  A    between atoms: _159  and  _162
REMARK   67  A    between atoms: _162  and  _163
REMARK   68  A    between atoms: _169  and  _171
REMARK   69  A    between atoms: _171  and  _172
REMARK   70  A    between atoms: _171  and  _174
REMARK   71  A    between atoms: _174  and  _175
REMARK   72  A    between atoms: _180  and  _181
REMARK   73  A    between atoms: _183  and  _185
REMARK   74  A    between atoms: _185  and  _186
REMARK   75  A    between atoms: _185  and  _188
REMARK   76  A    between atoms: _188  and  _189
REMARK   77  A    between atoms: _189  and  _190
REMARK   78  A    between atoms: _192  and  _194
REMARK   79  A    between atoms: _194  and  _195
REMARK   80  A    between atoms: _194  and  _197
REMARK   81  A    between atoms: _197  and  _198
REMARK   82  A    between atoms: _200  and  _202
REMARK   83  A    between atoms: _202  and  _203
REMARK   84  A    between atoms: _202  and  _205
REMARK   85  A    between atoms: _205  and  _206
REMARK   86  A    between atoms: _216  and  _218
REMARK   87  A    between atoms: _218  and  _219
REMARK   88  A    between atoms: _218  and  _221
REMARK   89  A    between atoms: _221  and  _222
REMARK   90  A    between atoms: _225  and  _227
REMARK   91  A    between atoms: _227  and  _228
REMARK   92  A    between atoms: _227  and  _230
REMARK   93  A    between atoms: _230  and  _231
REMARK   94  A    between atoms: _234  and  _236
REMARK   95  A    between atoms: _236  and  _237
REMARK   96  A    between atoms: _236  and  _239
REMARK   97  A    between atoms: _239  and  _240
REMARK   98  A    between atoms: _240  and  _241
REMARK   99  A    between atoms: _241  and  _242
REMARK  100  A    between atoms: _251  and  _253
REMARK  101  A    between atoms: _253  and  _254
REMARK  102  A    between atoms: _253  and  _256
REMARK  103  A    between atoms: _256  and  _257
REMARK  104  A    between atoms: _262  and  _264
REMARK  105  A    between atoms: _264  and  _265
REMARK  106  A    between atoms: _264  and  _267
REMARK  107  A    between atoms: _267  and  _268
REMARK  108  A    between atoms: _273  and  _275
REMARK  109  A    between atoms: _275  and  _276
REMARK  110  A    between atoms: _275  and  _278
REMARK  111  A    between atoms: _278  and  _279
REMARK  112  A    between atoms: _282  and  _284
REMARK  113  A    between atoms: _284  and  _285
REMARK  114  A    between atoms: _284  and  _287
REMARK  115  A    between atoms: _287  and  _288
REMARK  116  A    between atoms: _288  and  _289
REMARK  117  A    between atoms: _292  and  _294
REMARK  118  A    between atoms: _294  and  _295
REMARK  119  A    between atoms: _294  and  _297
REMARK  120  A    between atoms: _297  and  _298
REMARK  121  A    between atoms: _298  and  _299
REMARK  122  A    between atoms: _299  and  _300
REMARK  123  A    between atoms: _309  and  _311
REMARK  124  A    between atoms: _311  and  _312
REMARK  125  A    between atoms: _311  and  _314
REMARK  126  A    between atoms: _314  and  _315
REMARK  127  A    between atoms: _318  and  _320
REMARK  128  A    between atoms: _320  and  _321
REMARK  129  A    between atoms: _320  and  _323
REMARK  130  A    between atoms: _323  and  _324
REMARK  131  A    between atoms: _324  and  _325
REMARK  132  A    between atoms: _325  and  _326
REMARK  133  A    between atoms: _326  and  _327
REMARK  134  A    between atoms: _331  and  _333
REMARK  135  A    between atoms: _333  and  _334
REMARK  136  A    between atoms: _336  and  _338
REMARK  137  A    between atoms: _338  and  _339
REMARK  138  A    between atoms: _338  and  _341
REMARK  139  A    between atoms: _341  and  _342
REMARK  140  A    between atoms: _347  and  _348
REMARK  141  A    between atoms: _350  and  _352
REMARK  142  A    between atoms: _352  and  _353
REMARK  143  A    between atoms: _356  and  _358
REMARK  144  A    between atoms: _358  and  _359
REMARK  145  A    between atoms: _358  and  _361
REMARK  146  A    between atoms: _361  and  _362
REMARK  147  A    between atoms: _372  and  _374
REMARK  148  A    between atoms: _374  and  _375
REMARK  149  A    between atoms: _374  and  _377
REMARK  150  A    between atoms: _377  and  _378
REMARK  151  A    between atoms: _384  and  _386
REMARK  152  A    between atoms: _386  and  _387
REMARK                            x       y       z     vdW  Elec       q    Type
REMARK                         _______ _______ _______ _____ _____    ______ ____
ROOT
ATOM      1  O   HOH     1      76.312  23.674  66.534  0.00  0.00    +0.000 OA
ENDROOT
TORSDOF 0
REMARK  Name = ../refined-set-2016/2bmk/2bmk_pocket.pdb
REMARK  152 active torsions:
REMARK  status: ('A' for Active; 'I' for Inactive)
REMARK    1  A    between atoms: _1  and  _3
REMARK    2  A    between atoms: _3  and  _4
REMARK    3  A    between atoms: _3  and  _6
REMARK    4  A    between atoms: _9  and  _11
REMARK    5  A    between atoms: _11  and  _12
REMARK    6  A    between atoms: _11  and  _14
REMARK    7  A    between atoms: _14  and  _15
REMARK    8  A    between atoms: _20  and  _22
REMARK    9  A    between atoms: _22  and  _23
REMARK   10  A    between atoms: _22  and  _25
REMARK   11  A    between atoms: _25  and  _26
REMARK   12  A    between atoms: _31  and  _32
REMARK   13  A    between atoms: _34  and  _36
REMARK   14  A    between atoms: _36  and  _37
REMARK   15  A    between atoms: _36  and  _39
REMARK   16  A    between atoms: _39  and  _40
REMARK   17  A    between atoms: _40  and  _41
REMARK   18  A    between atoms: _43  and  _45
REMARK   19  A    between atoms: _45  and  _46
REMARK   20  A    between atoms: _45  and  _48
REMARK   21  A    between atoms: _48  and  _49
REMARK   22  A    between atoms: _54  and  _56
REMARK   23  A    between atoms: _56  and  _57
REMARK   24  A    between atoms: _56  and  _59
REMARK   25  A    between atoms: _59  and  _60
REMARK   26  A    between atoms: _65  and  _66
REMARK   27  A    between atoms: _68  and  _70
REMARK   28  A    between atoms: _70  and  _71
REMARK   29  A    between atoms: _70  and  _73
REMARK   30  A    between atoms: _73  and  _74
REMARK   31  A    between atoms: _76  and  _78
REMARK   32  A    between atoms: _78  and  _79
REMARK   33  A    between atoms: _78  and  _81
REMARK   34  A    between atoms: _81  and  _82
REMARK   35  A    between atoms: _85  and  _87
REMARK   36  A    between atoms: _87  and  _88
REMARK   37  A    between atoms: _87  and  _90
REMARK   38  A    between atoms: _90  and  _91
REMARK   39  A    between atoms: _91  and  _92
REMARK   40  A    between atoms: _97  and  _99
REMARK   41  A    between atoms: _99  and  _100
REMARK   42  A    between atoms: _99  and  _102
REMARK   43  A    between atoms: _102  and  _103
REMARK   44  A    between atoms: _103  and  _104
REMARK   45  A    between atoms: _109  and  _111
REMARK   46  A    between atoms: _111  and  _112
REMARK   47  A    between atoms: _111  and  _114
REMARK   48  A    between atoms: _114  and  _115
REMARK   49  A    between atoms: _115  and  _116
REMARK   50  A    between atoms: _116  and  _117
REMARK   51  A    between atoms: _126  and  _128
REMARK   52  A    between atoms: _128  and  _129
REMARK   53  A    between atoms: _128  and  _131
REMARK   54  A    between atoms: _131  and  _132
REMARK   55  A    between atoms: _134  and  _136
REMARK   56  A    between atoms: _136  and  _137
REMARK   57  A    between atoms: _136  and  _139
REMARK   58  A    between atoms: _139  and  _140
REMARK   59  A    between atoms: _143  and  _145
REMARK   60  A    between atoms: _145  and  _146
REMARK   61  A    between atoms: _145  and  _148
REMARK   62  A    between atoms: _148  and  _149
REMARK   63  A    between atoms: _154  and  _155
REMARK   64  A    between atoms: _157  and  _159
REMARK   65  A    between atoms: _159  and  _160
REMARK   66  A    between atoms: _159  and  _162
REMARK   67  A    between atoms: _162  and  _163
REMARK   68  A    between atoms: _169  and  _171
REMARK   69  A    between atoms: _171  and  _172
REMARK   70  A    between atoms: _171  and  _174
REMARK   71  A    between atoms: _174  and  _175
REMARK   72  A    between atoms: _180  and  _181
REMARK   73  A    between atoms: _183  and  _185
REMARK   74  A    between atoms: _185  and  _186
REMARK   75  A    between atoms: _185  and  _188
REMARK   76  A    between atoms: _188  and  _189
REMARK   77  A    between atoms: _189  and  _190
REMARK   78  A    between atoms: _192  and  _194
REMARK   79  A    between atoms: _194  and  _195
REMARK   80  A    between atoms: _194  and  _197
REMARK   81  A    between atoms: _197  and  _198
REMARK   82  A    between atoms: _200  and  _202
REMARK   83  A    between atoms: _202  and  _203
REMARK   84  A    between atoms: _202  and  _205
REMARK   85  A    between atoms: _205  and  _206
REMARK   86  A    between atoms: _216  and  _218
REMARK   87  A    between atoms: _218  and  _219
REMARK   88  A    between atoms: _218  and  _221
REMARK   89  A    between atoms: _221  and  _222
REMARK   90  A    between atoms: _225  and  _227
REMARK   91  A    between atoms: _227  and  _228
REMARK   92  A    between atoms: _227  and  _230
REMARK   93  A    between atoms: _230  and  _231
REMARK   94  A    between atoms: _234  and  _236
REMARK   95  A    between atoms: _236  and  _237
REMARK   96  A    between atoms: _236  and  _239
REMARK   97  A    between atoms: _239  and  _240
REMARK   98  A    between atoms: _240  and  _241
REMARK   99  A    between atoms: _241  and  _242
REMARK  100  A    between atoms: _251  and  _253
REMARK  101  A    between atoms: _253  and  _254
REMARK  102  A    between atoms: _253  and  _256
REMARK  103  A    between atoms: _256  and  _257
REMARK  104  A    between atoms: _262  and  _264
REMARK  105  A    between atoms: _264  and  _265
REMARK  106  A    between atoms: _264  and  _267
REMARK  107  A    between atoms: _267  and  _268
REMARK  108  A    between atoms: _273  and  _275
REMARK  109  A    between atoms: _275  and  _276
REMARK  110  A    between atoms: _275  and  _278
REMARK  111  A    between atoms: _278  and  _279
REMARK  112  A    between atoms: _282  and  _284
REMARK  113  A    between atoms: _284  and  _285
REMARK  114  A    between atoms: _284  and  _287
REMARK  115  A    between atoms: _287  and  _288
REMARK  116  A    between atoms: _288  and  _289
REMARK  117  A    between atoms: _292  and  _294
REMARK  118  A    between atoms: _294  and  _295
REMARK  119  A    between atoms: _294  and  _297
REMARK  120  A    between atoms: _297  and  _298
REMARK  121  A    between atoms: _298  and  _299
REMARK  122  A    between atoms: _299  and  _300
REMARK  123  A    between atoms: _309  and  _311
REMARK  124  A    between atoms: _311  and  _312
REMARK  125  A    between atoms: _311  and  _314
REMARK  126  A    between atoms: _314  and  _315
REMARK  127  A    between atoms: _318  and  _320
REMARK  128  A    between atoms: _320  and  _321
REMARK  129  A    between atoms: _320  and  _323
REMARK  130  A    between atoms: _323  and  _324
REMARK  131  A    between atoms: _324  and  _325
REMARK  132  A    between atoms: _325  and  _326
REMARK  133  A    between atoms: _326  and  _327
REMARK  134  A    between atoms: _331  and  _333
REMARK  135  A    between atoms: _333  and  _334
REMARK  136  A    between atoms: _336  and  _338
REMARK  137  A    between atoms: _338  and  _339
REMARK  138  A    between atoms: _338  and  _341
REMARK  139  A    between atoms: _341  and  _342
REMARK  140  A    between atoms: _347  and  _348
REMARK  141  A    between atoms: _350  and  _352
REMARK  142  A    between atoms: _352  and  _353
REMARK  143  A    between atoms: _356  and  _358
REMARK  144  A    between atoms: _358  and  _359
REMARK  145  A    between atoms: _358  and  _361
REMARK  146  A    between atoms: _361  and  _362
REMARK  147  A    between atoms: _372  and  _374
REMARK  148  A    between atoms: _374  and  _375
REMARK  149  A    between atoms: _374  and  _377
REMARK  150  A    between atoms: _377  and  _378
REMARK  151  A    between atoms: _384  and  _386
REMARK  152  A    between atoms: _386  and  _387
REMARK                            x       y       z     vdW  Elec       q    Type
REMARK                         _______ _______ _______ _____ _____    ______ ____
ROOT
ATOM      1  O   HOH     1      72.913  35.039  70.106  0.00  0.00    +0.000 OA
ENDROOT
TORSDOF 0
REMARK  Name = ../refined-set-2016/2bmk/2bmk_pocket.pdb
REMARK  152 active torsions:
REMARK  status: ('A' for Active; 'I' for Inactive)
REMARK    1  A    between atoms: _1  and  _3
REMARK    2  A    between atoms: _3  and  _4
REMARK    3  A    between atoms: _3  and  _6
REMARK    4  A    between atoms: _9  and  _11
REMARK    5  A    between atoms: _11  and  _12
REMARK    6  A    between atoms: _11  and  _14
REMARK    7  A    between atoms: _14  and  _15
REMARK    8  A    between atoms: _20  and  _22
REMARK    9  A    between atoms: _22  and  _23
REMARK   10  A    between atoms: _22  and  _25
REMARK   11  A    between atoms: _25  and  _26
REMARK   12  A    between atoms: _31  and  _32
REMARK   13  A    between atoms: _34  and  _36
REMARK   14  A    between atoms: _36  and  _37
REMARK   15  A    between atoms: _36  and  _39
REMARK   16  A    between atoms: _39  and  _40
REMARK   17  A    between atoms: _40  and  _41
REMARK   18  A    between atoms: _43  and  _45
REMARK   19  A    between atoms: _45  and  _46
REMARK   20  A    between atoms: _45  and  _48
REMARK   21  A    between atoms: _48  and  _49
REMARK   22  A    between atoms: _54  and  _56
REMARK   23  A    between atoms: _56  and  _57
REMARK   24  A    between atoms: _56  and  _59
REMARK   25  A    between atoms: _59  and  _60
REMARK   26  A    between atoms: _65  and  _66
REMARK   27  A    between atoms: _68  and  _70
REMARK   28  A    between atoms: _70  and  _71
REMARK   29  A    between atoms: _70  and  _73
REMARK   30  A    between atoms: _73  and  _74
REMARK   31  A    between atoms: _76  and  _78
REMARK   32  A    between atoms: _78  and  _79
REMARK   33  A    between atoms: _78  and  _81
REMARK   34  A    between atoms: _81  and  _82
REMARK   35  A    between atoms: _85  and  _87
REMARK   36  A    between atoms: _87  and  _88
REMARK   37  A    between atoms: _87  and  _90
REMARK   38  A    between atoms: _90  and  _91
REMARK   39  A    between atoms: _91  and  _92
REMARK   40  A    between atoms: _97  and  _99
REMARK   41  A    between atoms: _99  and  _100
REMARK   42  A    between atoms: _99  and  _102
REMARK   43  A    between atoms: _102  and  _103
REMARK   44  A    between atoms: _103  and  _104
REMARK   45  A    between atoms: _109  and  _111
REMARK   46  A    between atoms: _111  and  _112
REMARK   47  A    between atoms: _111  and  _114
REMARK   48  A    between atoms: _114  and  _115
REMARK   49  A    between atoms: _115  and  _116
REMARK   50  A    between atoms: _116  and  _117
REMARK   51  A    between atoms: _126  and  _128
REMARK   52  A    between atoms: _128  and  _129
REMARK   53  A    between atoms: _128  and  _131
REMARK   54  A    between atoms: _131  and  _132
REMARK   55  A    between atoms: _134  and  _136
REMARK   56  A    between atoms: _136  and  _137
REMARK   57  A    between atoms: _136  and  _139
REMARK   58  A    between atoms: _139  and  _140
REMARK   59  A    between atoms: _143  and  _145
REMARK   60  A    between atoms: _145  and  _146
REMARK   61  A    between atoms: _145  and  _148
REMARK   62  A    between atoms: _148  and  _149
REMARK   63  A    between atoms: _154  and  _155
REMARK   64  A    between atoms: _157  and  _159
REMARK   65  A    between atoms: _159  and  _160
REMARK   66  A    between atoms: _159  and  _162
REMARK   67  A    between atoms: _162  and  _163
REMARK   68  A    between atoms: _169  and  _171
REMARK   69  A    between atoms: _171  and  _172
REMARK   70  A    between atoms: _171  and  _174
REMARK   71  A    between atoms: _174  and  _175
REMARK   72  A    between atoms: _180  and  _181
REMARK   73  A    between atoms: _183  and  _185
REMARK   74  A    between atoms: _185  and  _186
REMARK   75  A    between atoms: _185  and  _188
REMARK   76  A    between atoms: _188  and  _189
REMARK   77  A    between atoms: _189  and  _190
REMARK   78  A    between atoms: _192  and  _194
REMARK   79  A    between atoms: _194  and  _195
REMARK   80  A    between atoms: _194  and  _197
REMARK   81  A    between atoms: _197  and  _198
REMARK   82  A    between atoms: _200  and  _202
REMARK   83  A    between atoms: _202  and  _203
REMARK   84  A    between atoms: _202  and  _205
REMARK   85  A    between atoms: _205  and  _206
REMARK   86  A    between atoms: _216  and  _218
REMARK   87  A    between atoms: _218  and  _219
REMARK   88  A    between atoms: _218  and  _221
REMARK   89  A    between atoms: _221  and  _222
REMARK   90  A    between atoms: _225  and  _227
REMARK   91  A    between atoms: _227  and  _228
REMARK   92  A    between atoms: _227  and  _230
REMARK   93  A    between atoms: _230  and  _231
REMARK   94  A    between atoms: _234  and  _236
REMARK   95  A    between atoms: _236  and  _237
REMARK   96  A    between atoms: _236  and  _239
REMARK   97  A    between atoms: _239  and  _240
REMARK   98  A    between atoms: _240  and  _241
REMARK   99  A    between atoms: _241  and  _242
REMARK  100  A    between atoms: _251  and  _253
REMARK  101  A    between atoms: _253  and  _254
REMARK  102  A    between atoms: _253  and  _256
REMARK  103  A    between atoms: _256  and  _257
REMARK  104  A    between atoms: _262  and  _264
REMARK  105  A    between atoms: _264  and  _265
REMARK  106  A    between atoms: _264  and  _267
REMARK  107  A    between atoms: _267  and  _268
REMARK  108  A    between atoms: _273  and  _275
REMARK  109  A    between atoms: _275  and  _276
REMARK  110  A    between atoms: _275  and  _278
REMARK  111  A    between atoms: _278  and  _279
REMARK  112  A    between atoms: _282  and  _284
REMARK  113  A    between atoms: _284  and  _285
REMARK  114  A    between atoms: _284  and  _287
REMARK  115  A    between atoms: _287  and  _288
REMARK  116  A    between atoms: _288  and  _289
REMARK  117  A    between atoms: _292  and  _294
REMARK  118  A    between atoms: _294  and  _295
REMARK  119  A    between atoms: _294  and  _297
REMARK  120  A    between atoms: _297  and  _298
REMARK  121  A    between atoms: _298  and  _299
REMARK  122  A    between atoms: _299  and  _300
REMARK  123  A    between atoms: _309  and  _311
REMARK  124  A    between atoms: _311  and  _312
REMARK  125  A    between atoms: _311  and  _314
REMARK  126  A    between atoms: _314  and  _315
REMARK  127  A    between atoms: _318  and  _320
REMARK  128  A    between atoms: _320  and  _321
REMARK  129  A    between atoms: _320  and  _323
REMARK  130  A    between atoms: _323  and  _324
REMARK  131  A    between atoms: _324  and  _325
REMARK  132  A    between atoms: _325  and  _326
REMARK  133  A    between atoms: _326  and  _327
REMARK  134  A    between atoms: _331  and  _333
REMARK  135  A    between atoms: _333  and  _334
REMARK  136  A    between atoms: _336  and  _338
REMARK  137  A    between atoms: _338  and  _339
REMARK  138  A    between atoms: _338  and  _341
REMARK  139  A    between atoms: _341  and  _342
REMARK  140  A    between atoms: _347  and  _348
REMARK  141  A    between atoms: _350  and  _352
REMARK  142  A    between atoms: _352  and  _353
REMARK  143  A    between atoms: _356  and  _358
REMARK  144  A    between atoms: _358  and  _359
REMARK  145  A    between atoms: _358  and  _361
REMARK  146  A    between atoms: _361  and  _362
REMARK  147  A    between atoms: _372  and  _374
REMARK  148  A    between atoms: _374  and  _375
REMARK  149  A    between atoms: _374  and  _377
REMARK  150  A    between atoms: _377  and  _378
REMARK  151  A    between atoms: _384  and  _386
REMARK  152  A    between atoms: _386  and  _387
REMARK                            x       y       z     vdW  Elec       q    Type
REMARK                         _______ _______ _______ _____ _____    ______ ____
ROOT
ATOM      1  O   HOH     1      73.241  26.909  56.808  0.00  0.00    +0.000 OA
ENDROOT
TORSDOF 0
REMARK  Name = ../refined-set-2016/2bmk/2bmk_pocket.pdb
REMARK  152 active torsions:
REMARK  status: ('A' for Active; 'I' for Inactive)
REMARK    1  A    between atoms: _1  and  _3
REMARK    2  A    between atoms: _3  and  _4
REMARK    3  A    between atoms: _3  and  _6
REMARK    4  A    between atoms: _9  and  _11
REMARK    5  A    between atoms: _11  and  _12
REMARK    6  A    between atoms: _11  and  _14
REMARK    7  A    between atoms: _14  and  _15
REMARK    8  A    between atoms: _20  and  _22
REMARK    9  A    between atoms: _22  and  _23
REMARK   10  A    between atoms: _22  and  _25
REMARK   11  A    between atoms: _25  and  _26
REMARK   12  A    between atoms: _31  and  _32
REMARK   13  A    between atoms: _34  and  _36
REMARK   14  A    between atoms: _36  and  _37
REMARK   15  A    between atoms: _36  and  _39
REMARK   16  A    between atoms: _39  and  _40
REMARK   17  A    between atoms: _40  and  _41
REMARK   18  A    between atoms: _43  and  _45
REMARK   19  A    between atoms: _45  and  _46
REMARK   20  A    between atoms: _45  and  _48
REMARK   21  A    between atoms: _48  and  _49
REMARK   22  A    between atoms: _54  and  _56
REMARK   23  A    between atoms: _56  and  _57
REMARK   24  A    between atoms: _56  and  _59
REMARK   25  A    between atoms: _59  and  _60
REMARK   26  A    between atoms: _65  and  _66
REMARK   27  A    between atoms: _68  and  _70
REMARK   28  A    between atoms: _70  and  _71
REMARK   29  A    between atoms: _70  and  _73
REMARK   30  A    between atoms: _73  and  _74
REMARK   31  A    between atoms: _76  and  _78
REMARK   32  A    between atoms: _78  and  _79
REMARK   33  A    between atoms: _78  and  _81
REMARK   34  A    between atoms: _81  and  _82
REMARK   35  A    between atoms: _85  and  _87
REMARK   36  A    between atoms: _87  and  _88
REMARK   37  A    between atoms: _87  and  _90
REMARK   38  A    between atoms: _90  and  _91
REMARK   39  A    between atoms: _91  and  _92
REMARK   40  A    between atoms: _97  and  _99
REMARK   41  A    between atoms: _99  and  _100
REMARK   42  A    between atoms: _99  and  _102
REMARK   43  A    between atoms: _102  and  _103
REMARK   44  A    between atoms: _103  and  _104
REMARK   45  A    between atoms: _109  and  _111
REMARK   46  A    between atoms: _111  and  _112
REMARK   47  A    between atoms: _111  and  _114
REMARK   48  A    between atoms: _114  and  _115
REMARK   49  A    between atoms: _115  and  _116
REMARK   50  A    between atoms: _116  and  _117
REMARK   51  A    between atoms: _126  and  _128
REMARK   52  A    between atoms: _128  and  _129
REMARK   53  A    between atoms: _128  and  _131
REMARK   54  A    between atoms: _131  and  _132
REMARK   55  A    between atoms: _134  and  _136
REMARK   56  A    between atoms: _136  and  _137
REMARK   57  A    between atoms: _136  and  _139
REMARK   58  A    between atoms: _139  and  _140
REMARK   59  A    between atoms: _143  and  _145
REMARK   60  A    between atoms: _145  and  _146
REMARK   61  A    between atoms: _145  and  _148
REMARK   62  A    between atoms: _148  and  _149
REMARK   63  A    between atoms: _154  and  _155
REMARK   64  A    between atoms: _157  and  _159
REMARK   65  A    between atoms: _159  and  _160
REMARK   66  A    between atoms: _159  and  _162
REMARK   67  A    between atoms: _162  and  _163
REMARK   68  A    between atoms: _169  and  _171
REMARK   69  A    between atoms: _171  and  _172
REMARK   70  A    between atoms: _171  and  _174
REMARK   71  A    between atoms: _174  and  _175
REMARK   72  A    between atoms: _180  and  _181
REMARK   73  A    between atoms: _183  and  _185
REMARK   74  A    between atoms: _185  and  _186
REMARK   75  A    between atoms: _185  and  _188
REMARK   76  A    between atoms: _188  and  _189
REMARK   77  A    between atoms: _189  and  _190
REMARK   78  A    between atoms: _192  and  _194
REMARK   79  A    between atoms: _194  and  _195
REMARK   80  A    between atoms: _194  and  _197
REMARK   81  A    between atoms: _197  and  _198
REMARK   82  A    between atoms: _200  and  _202
REMARK   83  A    between atoms: _202  and  _203
REMARK   84  A    between atoms: _202  and  _205
REMARK   85  A    between atoms: _205  and  _206
REMARK   86  A    between atoms: _216  and  _218
REMARK   87  A    between atoms: _218  and  _219
REMARK   88  A    between atoms: _218  and  _221
REMARK   89  A    between atoms: _221  and  _222
REMARK   90  A    between atoms: _225  and  _227
REMARK   91  A    between atoms: _227  and  _228
REMARK   92  A    between atoms: _227  and  _230
REMARK   93  A    between atoms: _230  and  _231
REMARK   94  A    between atoms: _234  and  _236
REMARK   95  A    between atoms: _236  and  _237
REMARK   96  A    between atoms: _236  and  _239
REMARK   97  A    between atoms: _239  and  _240
REMARK   98  A    between atoms: _240  and  _241
REMARK   99  A    between atoms: _241  and  _242
REMARK  100  A    between atoms: _251  and  _253
REMARK  101  A    between atoms: _253  and  _254
REMARK  102  A    between atoms: _253  and  _256
REMARK  103  A    between atoms: _256  and  _257
REMARK  104  A    between atoms: _262  and  _264
REMARK  105  A    between atoms: _264  and  _265
REMARK  106  A    between atoms: _264  and  _267
REMARK  107  A    between atoms: _267  and  _268
REMARK  108  A    between atoms: _273  and  _275
REMARK  109  A    between atoms: _275  and  _276
REMARK  110  A    between atoms: _275  and  _278
REMARK  111  A    between atoms: _278  and  _279
REMARK  112  A    between atoms: _282  and  _284
REMARK  113  A    between atoms: _284  and  _285
REMARK  114  A    between atoms: _284  and  _287
REMARK  115  A    between atoms: _287  and  _288
REMARK  116  A    between atoms: _288  and  _289
REMARK  117  A    between atoms: _292  and  _294
REMARK  118  A    between atoms: _294  and  _295
REMARK  119  A    between atoms: _294  and  _297
REMARK  120  A    between atoms: _297  and  _298
REMARK  121  A    between atoms: _298  and  _299
REMARK  122  A    between atoms: _299  and  _300
REMARK  123  A    between atoms: _309  and  _311
REMARK  124  A    between atoms: _311  and  _312
REMARK  125  A    between atoms: _311  and  _314
REMARK  126  A    between atoms: _314  and  _315
REMARK  127  A    between atoms: _318  and  _320
REMARK  128  A    between atoms: _320  and  _321
REMARK  129  A    between atoms: _320  and  _323
REMARK  130  A    between atoms: _323  and  _324
REMARK  131  A    between atoms: _324  and  _325
REMARK  132  A    between atoms: _325  and  _326
REMARK  133  A    between atoms: _326  and  _327
REMARK  134  A    between atoms: _331  and  _333
REMARK  135  A    between atoms: _333  and  _334
REMARK  136  A    between atoms: _336  and  _338
REMARK  137  A    between atoms: _338  and  _339
REMARK  138  A    between atoms: _338  and  _341
REMARK  139  A    between atoms: _341  and  _342
REMARK  140  A    between atoms: _347  and  _348
REMARK  141  A    between atoms: _350  and  _352
REMARK  142  A    between atoms: _352  and  _353
REMARK  143  A    between atoms: _356  and  _358
REMARK  144  A    between atoms: _358  and  _359
REMARK  145  A    between atoms: _358  and  _361
REMARK  146  A    between atoms: _361  and  _362
REMARK  147  A    between atoms: _372  and  _374
REMARK  148  A    between atoms: _374  and  _375
REMARK  149  A    between atoms: _374  and  _377
REMARK  150  A    between atoms: _377  and  _378
REMARK  151  A    between atoms: _384  and  _386
REMARK  152  A    between atoms: _386  and  _387
REMARK                            x       y       z     vdW  Elec       q    Type
REMARK                         _______ _______ _______ _____ _____    ______ ____
ROOT
ATOM      1  O   HOH     1      73.667  40.692  50.490  0.00  0.00    +0.000 OA
ENDROOT
TORSDOF 0
REMARK  Name = ../refined-set-2016/2bmk/2bmk_pocket.pdb
REMARK  152 active torsions:
REMARK  status: ('A' for Active; 'I' for Inactive)
REMARK    1  A    between atoms: _1  and  _3
REMARK    2  A    between atoms: _3  and  _4
REMARK    3  A    between atoms: _3  and  _6
REMARK    4  A    between atoms: _9  and  _11
REMARK    5  A    between atoms: _11  and  _12
REMARK    6  A    between atoms: _11  and  _14
REMARK    7  A    between atoms: _14  and  _15
REMARK    8  A    between atoms: _20  and  _22
REMARK    9  A    between atoms: _22  and  _23
REMARK   10  A    between atoms: _22  and  _25
REMARK   11  A    between atoms: _25  and  _26
REMARK   12  A    between atoms: _31  and  _32
REMARK   13  A    between atoms: _34  and  _36
REMARK   14  A    between atoms: _36  and  _37
REMARK   15  A    between atoms: _36  and  _39
REMARK   16  A    between atoms: _39  and  _40
REMARK   17  A    between atoms: _40  and  _41
REMARK   18  A    between atoms: _43  and  _45
REMARK   19  A    between atoms: _45  and  _46
REMARK   20  A    between atoms: _45  and  _48
REMARK   21  A    between atoms: _48  and  _49
REMARK   22  A    between atoms: _54  and  _56
REMARK   23  A    between atoms: _56  and  _57
REMARK   24  A    between atoms: _56  and  _59
REMARK   25  A    between atoms: _59  and  _60
REMARK   26  A    between atoms: _65  and  _66
REMARK   27  A    between atoms: _68  and  _70
REMARK   28  A    between atoms: _70  and  _71
REMARK   29  A    between atoms: _70  and  _73
REMARK   30  A    between atoms: _73  and  _74
REMARK   31  A    between atoms: _76  and  _78
REMARK   32  A    between atoms: _78  and  _79
REMARK   33  A    between atoms: _78  and  _81
REMARK   34  A    between atoms: _81  and  _82
REMARK   35  A    between atoms: _85  and  _87
REMARK   36  A    between atoms: _87  and  _88
REMARK   37  A    between atoms: _87  and  _90
REMARK   38  A    between atoms: _90  and  _91
REMARK   39  A    between atoms: _91  and  _92
REMARK   40  A    between atoms: _97  and  _99
REMARK   41  A    between atoms: _99  and  _100
REMARK   42  A    between atoms: _99  and  _102
REMARK   43  A    between atoms: _102  and  _103
REMARK   44  A    between atoms: _103  and  _104
REMARK   45  A    between atoms: _109  and  _111
REMARK   46  A    between atoms: _111  and  _112
REMARK   47  A    between atoms: _111  and  _114
REMARK   48  A    between atoms: _114  and  _115
REMARK   49  A    between atoms: _115  and  _116
REMARK   50  A    between atoms: _116  and  _117
REMARK   51  A    between atoms: _126  and  _128
REMARK   52  A    between atoms: _128  and  _129
REMARK   53  A    between atoms: _128  and  _131
REMARK   54  A    between atoms: _131  and  _132
REMARK   55  A    between atoms: _134  and  _136
REMARK   56  A    between atoms: _136  and  _137
REMARK   57  A    between atoms: _136  and  _139
REMARK   58  A    between atoms: _139  and  _140
REMARK   59  A    between atoms: _143  and  _145
REMARK   60  A    between atoms: _145  and  _146
REMARK   61  A    between atoms: _145  and  _148
REMARK   62  A    between atoms: _148  and  _149
REMARK   63  A    between atoms: _154  and  _155
REMARK   64  A    between atoms: _157  and  _159
REMARK   65  A    between atoms: _159  and  _160
REMARK   66  A    between atoms: _159  and  _162
REMARK   67  A    between atoms: _162  and  _163
REMARK   68  A    between atoms: _169  and  _171
REMARK   69  A    between atoms: _171  and  _172
REMARK   70  A    between atoms: _171  and  _174
REMARK   71  A    between atoms: _174  and  _175
REMARK   72  A    between atoms: _180  and  _181
REMARK   73  A    between atoms: _183  and  _185
REMARK   74  A    between atoms: _185  and  _186
REMARK   75  A    between atoms: _185  and  _188
REMARK   76  A    between atoms: _188  and  _189
REMARK   77  A    between atoms: _189  and  _190
REMARK   78  A    between atoms: _192  and  _194
REMARK   79  A    between atoms: _194  and  _195
REMARK   80  A    between atoms: _194  and  _197
REMARK   81  A    between atoms: _197  and  _198
REMARK   82  A    between atoms: _200  and  _202
REMARK   83  A    between atoms: _202  and  _203
REMARK   84  A    between atoms: _202  and  _205
REMARK   85  A    between atoms: _205  and  _206
REMARK   86  A    between atoms: _216  and  _218
REMARK   87  A    between atoms: _218  and  _219
REMARK   88  A    between atoms: _218  and  _221
REMARK   89  A    between atoms: _221  and  _222
REMARK   90  A    between atoms: _225  and  _227
REMARK   91  A    between atoms: _227  and  _228
REMARK   92  A    between atoms: _227  and  _230
REMARK   93  A    between atoms: _230  and  _231
REMARK   94  A    between atoms: _234  and  _236
REMARK   95  A    between atoms: _236  and  _237
REMARK   96  A    between atoms: _236  and  _239
REMARK   97  A    between atoms: _239  and  _240
REMARK   98  A    between atoms: _240  and  _241
REMARK   99  A    between atoms: _241  and  _242
REMARK  100  A    between atoms: _251  and  _253
REMARK  101  A    between atoms: _253  and  _254
REMARK  102  A    between atoms: _253  and  _256
REMARK  103  A    between atoms: _256  and  _257
REMARK  104  A    between atoms: _262  and  _264
REMARK  105  A    between atoms: _264  and  _265
REMARK  106  A    between atoms: _264  and  _267
REMARK  107  A    between atoms: _267  and  _268
REMARK  108  A    between atoms: _273  and  _275
REMARK  109  A    between atoms: _275  and  _276
REMARK  110  A    between atoms: _275  and  _278
REMARK  111  A    between atoms: _278  and  _279
REMARK  112  A    between atoms: _282  and  _284
REMARK  113  A    between atoms: _284  and  _285
REMARK  114  A    between atoms: _284  and  _287
REMARK  115  A    between atoms: _287  and  _288
REMARK  116  A    between atoms: _288  and  _289
REMARK  117  A    between atoms: _292  and  _294
REMARK  118  A    between atoms: _294  and  _295
REMARK  119  A    between atoms: _294  and  _297
REMARK  120  A    between atoms: _297  and  _298
REMARK  121  A    between atoms: _298  and  _299
REMARK  122  A    between atoms: _299  and  _300
REMARK  123  A    between atoms: _309  and  _311
REMARK  124  A    between atoms: _311  and  _312
REMARK  125  A    between atoms: _311  and  _314
REMARK  126  A    between atoms: _314  and  _315
REMARK  127  A    between atoms: _318  and  _320
REMARK  128  A    between atoms: _320  and  _321
REMARK  129  A    between atoms: _320  and  _323
REMARK  130  A    between atoms: _323  and  _324
REMARK  131  A    between atoms: _324  and  _325
REMARK  132  A    between atoms: _325  and  _326
REMARK  133  A    between atoms: _326  and  _327
REMARK  134  A    between atoms: _331  and  _333
REMARK  135  A    between atoms: _333  and  _334
REMARK  136  A    between atoms: _336  and  _338
REMARK  137  A    between atoms: _338  and  _339
REMARK  138  A    between atoms: _338  and  _341
REMARK  139  A    between atoms: _341  and  _342
REMARK  140  A    between atoms: _347  and  _348
REMARK  141  A    between atoms: _350  and  _352
REMARK  142  A    between atoms: _352  and  _353
REMARK  143  A    between atoms: _356  and  _358
REMARK  144  A    between atoms: _358  and  _359
REMARK  145  A    between atoms: _358  and  _361
REMARK  146  A    between atoms: _361  and  _362
REMARK  147  A    between atoms: _372  and  _374
REMARK  148  A    between atoms: _374  and  _375
REMARK  149  A    between atoms: _374  and  _377
REMARK  150  A    between atoms: _377  and  _378
REMARK  151  A    between atoms: _384  and  _386
REMARK  152  A    between atoms: _386  and  _387
REMARK                            x       y       z     vdW  Elec       q    Type
REMARK                         _______ _______ _______ _____ _____    ______ ____
ROOT
ATOM      1  O   HOH     1      71.820  37.169  50.661  0.00  0.00    +0.000 OA
ENDROOT
TORSDOF 0
REMARK  Name = ../refined-set-2016/2bmk/2bmk_pocket.pdb
REMARK  152 active torsions:
REMARK  status: ('A' for Active; 'I' for Inactive)
REMARK    1  A    between atoms: _1  and  _3
REMARK    2  A    between atoms: _3  and  _4
REMARK    3  A    between atoms: _3  and  _6
REMARK    4  A    between atoms: _9  and  _11
REMARK    5  A    between atoms: _11  and  _12
REMARK    6  A    between atoms: _11  and  _14
REMARK    7  A    between atoms: _14  and  _15
REMARK    8  A    between atoms: _20  and  _22
REMARK    9  A    between atoms: _22  and  _23
REMARK   10  A    between atoms: _22  and  _25
REMARK   11  A    between atoms: _25  and  _26
REMARK   12  A    between atoms: _31  and  _32
REMARK   13  A    between atoms: _34  and  _36
REMARK   14  A    between atoms: _36  and  _37
REMARK   15  A    between atoms: _36  and  _39
REMARK   16  A    between atoms: _39  and  _40
REMARK   17  A    between atoms: _40  and  _41
REMARK   18  A    between atoms: _43  and  _45
REMARK   19  A    between atoms: _45  and  _46
REMARK   20  A    between atoms: _45  and  _48
REMARK   21  A    between atoms: _48  and  _49
REMARK   22  A    between atoms: _54  and  _56
REMARK   23  A    between atoms: _56  and  _57
REMARK   24  A    between atoms: _56  and  _59
REMARK   25  A    between atoms: _59  and  _60
REMARK   26  A    between atoms: _65  and  _66
REMARK   27  A    between atoms: _68  and  _70
REMARK   28  A    between atoms: _70  and  _71
REMARK   29  A    between atoms: _70  and  _73
REMARK   30  A    between atoms: _73  and  _74
REMARK   31  A    between atoms: _76  and  _78
REMARK   32  A    between atoms: _78  and  _79
REMARK   33  A    between atoms: _78  and  _81
REMARK   34  A    between atoms: _81  and  _82
REMARK   35  A    between atoms: _85  and  _87
REMARK   36  A    between atoms: _87  and  _88
REMARK   37  A    between atoms: _87  and  _90
REMARK   38  A    between atoms: _90  and  _91
REMARK   39  A    between atoms: _91  and  _92
REMARK   40  A    between atoms: _97  and  _99
REMARK   41  A    between atoms: _99  and  _100
REMARK   42  A    between atoms: _99  and  _102
REMARK   43  A    between atoms: _102  and  _103
REMARK   44  A    between atoms: _103  and  _104
REMARK   45  A    between atoms: _109  and  _111
REMARK   46  A    between atoms: _111  and  _112
REMARK   47  A    between atoms: _111  and  _114
REMARK   48  A    between atoms: _114  and  _115
REMARK   49  A    between atoms: _115  and  _116
REMARK   50  A    between atoms: _116  and  _117
REMARK   51  A    between atoms: _126  and  _128
REMARK   52  A    between atoms: _128  and  _129
REMARK   53  A    between atoms: _128  and  _131
REMARK   54  A    between atoms: _131  and  _132
REMARK   55  A    between atoms: _134  and  _136
REMARK   56  A    between atoms: _136  and  _137
REMARK   57  A    between atoms: _136  and  _139
REMARK   58  A    between atoms: _139  and  _140
REMARK   59  A    between atoms: _143  and  _145
REMARK   60  A    between atoms: _145  and  _146
REMARK   61  A    between atoms: _145  and  _148
REMARK   62  A    between atoms: _148  and  _149
REMARK   63  A    between atoms: _154  and  _155
REMARK   64  A    between atoms: _157  and  _159
REMARK   65  A    between atoms: _159  and  _160
REMARK   66  A    between atoms: _159  and  _162
REMARK   67  A    between atoms: _162  and  _163
REMARK   68  A    between atoms: _169  and  _171
REMARK   69  A    between atoms: _171  and  _172
REMARK   70  A    between atoms: _171  and  _174
REMARK   71  A    between atoms: _174  and  _175
REMARK   72  A    between atoms: _180  and  _181
REMARK   73  A    between atoms: _183  and  _185
REMARK   74  A    between atoms: _185  and  _186
REMARK   75  A    between atoms: _185  and  _188
REMARK   76  A    between atoms: _188  and  _189
REMARK   77  A    between atoms: _189  and  _190
REMARK   78  A    between atoms: _192  and  _194
REMARK   79  A    between atoms: _194  and  _195
REMARK   80  A    between atoms: _194  and  _197
REMARK   81  A    between atoms: _197  and  _198
REMARK   82  A    between atoms: _200  and  _202
REMARK   83  A    between atoms: _202  and  _203
REMARK   84  A    between atoms: _202  and  _205
REMARK   85  A    between atoms: _205  and  _206
REMARK   86  A    between atoms: _216  and  _218
REMARK   87  A    between atoms: _218  and  _219
REMARK   88  A    between atoms: _218  and  _221
REMARK   89  A    between atoms: _221  and  _222
REMARK   90  A    between atoms: _225  and  _227
REMARK   91  A    between atoms: _227  and  _228
REMARK   92  A    between atoms: _227  and  _230
REMARK   93  A    between atoms: _230  and  _231
REMARK   94  A    between atoms: _234  and  _236
REMARK   95  A    between atoms: _236  and  _237
REMARK   96  A    between atoms: _236  and  _239
REMARK   97  A    between atoms: _239  and  _240
REMARK   98  A    between atoms: _240  and  _241
REMARK   99  A    between atoms: _241  and  _242
REMARK  100  A    between atoms: _251  and  _253
REMARK  101  A    between atoms: _253  and  _254
REMARK  102  A    between atoms: _253  and  _256
REMARK  103  A    between atoms: _256  and  _257
REMARK  104  A    between atoms: _262  and  _264
REMARK  105  A    between atoms: _264  and  _265
REMARK  106  A    between atoms: _264  and  _267
REMARK  107  A    between atoms: _267  and  _268
REMARK  108  A    between atoms: _273  and  _275
REMARK  109  A    between atoms: _275  and  _276
REMARK  110  A    between atoms: _275  and  _278
REMARK  111  A    between atoms: _278  and  _279
REMARK  112  A    between atoms: _282  and  _284
REMARK  113  A    between atoms: _284  and  _285
REMARK  114  A    between atoms: _284  and  _287
REMARK  115  A    between atoms: _287  and  _288
REMARK  116  A    between atoms: _288  and  _289
REMARK  117  A    between atoms: _292  and  _294
REMARK  118  A    between atoms: _294  and  _295
REMARK  119  A    between atoms: _294  and  _297
REMARK  120  A    between atoms: _297  and  _298
REMARK  121  A    between atoms: _298  and  _299
REMARK  122  A    between atoms: _299  and  _300
REMARK  123  A    between atoms: _309  and  _311
REMARK  124  A    between atoms: _311  and  _312
REMARK  125  A    between atoms: _311  and  _314
REMARK  126  A    between atoms: _314  and  _315
REMARK  127  A    between atoms: _318  and  _320
REMARK  128  A    between atoms: _320  and  _321
REMARK  129  A    between atoms: _320  and  _323
REMARK  130  A    between atoms: _323  and  _324
REMARK  131  A    between atoms: _324  and  _325
REMARK  132  A    between atoms: _325  and  _326
REMARK  133  A    between atoms: _326  and  _327
REMARK  134  A    between atoms: _331  and  _333
REMARK  135  A    between atoms: _333  and  _334
REMARK  136  A    between atoms: _336  and  _338
REMARK  137  A    between atoms: _338  and  _339
REMARK  138  A    between atoms: _338  and  _341
REMARK  139  A    between atoms: _341  and  _342
REMARK  140  A    between atoms: _347  and  _348
REMARK  141  A    between atoms: _350  and  _352
REMARK  142  A    between atoms: _352  and  _353
REMARK  143  A    between atoms: _356  and  _358
REMARK  144  A    between atoms: _358  and  _359
REMARK  145  A    between atoms: _358  and  _361
REMARK  146  A    between atoms: _361  and  _362
REMARK  147  A    between atoms: _372  and  _374
REMARK  148  A    between atoms: _374  and  _375
REMARK  149  A    between atoms: _374  and  _377
REMARK  150  A    between atoms: _377  and  _378
REMARK  151  A    between atoms: _384  and  _386
REMARK  152  A    between atoms: _386  and  _387
REMARK                            x       y       z     vdW  Elec       q    Type
REMARK                         _______ _______ _______ _____ _____    ______ ____
ROOT
ATOM      1  O   HOH     1      80.172  35.574  62.233  0.00  0.00    +0.000 OA
ENDROOT
TORSDOF 0
REMARK  Name = ../refined-set-2016/2bmk/2bmk_pocket.pdb
REMARK  152 active torsions:
REMARK  status: ('A' for Active; 'I' for Inactive)
REMARK    1  A    between atoms: _1  and  _3
REMARK    2  A    between atoms: _3  and  _4
REMARK    3  A    between atoms: _3  and  _6
REMARK    4  A    between atoms: _9  and  _11
REMARK    5  A    between atoms: _11  and  _12
REMARK    6  A    between atoms: _11  and  _14
REMARK    7  A    between atoms: _14  and  _15
REMARK    8  A    between atoms: _20  and  _22
REMARK    9  A    between atoms: _22  and  _23
REMARK   10  A    between atoms: _22  and  _25
REMARK   11  A    between atoms: _25  and  _26
REMARK   12  A    between atoms: _31  and  _32
REMARK   13  A    between atoms: _34  and  _36
REMARK   14  A    between atoms: _36  and  _37
REMARK   15  A    between atoms: _36  and  _39
REMARK   16  A    between atoms: _39  and  _40
REMARK   17  A    between atoms: _40  and  _41
REMARK   18  A    between atoms: _43  and  _45
REMARK   19  A    between atoms: _45  and  _46
REMARK   20  A    between atoms: _45  and  _48
REMARK   21  A    between atoms: _48  and  _49
REMARK   22  A    between atoms: _54  and  _56
REMARK   23  A    between atoms: _56  and  _57
REMARK   24  A    between atoms: _56  and  _59
REMARK   25  A    between atoms: _59  and  _60
REMARK   26  A    between atoms: _65  and  _66
REMARK   27  A    between atoms: _68  and  _70
REMARK   28  A    between atoms: _70  and  _71
REMARK   29  A    between atoms: _70  and  _73
REMARK   30  A    between atoms: _73  and  _74
REMARK   31  A    between atoms: _76  and  _78
REMARK   32  A    between atoms: _78  and  _79
REMARK   33  A    between atoms: _78  and  _81
REMARK   34  A    between atoms: _81  and  _82
REMARK   35  A    between atoms: _85  and  _87
REMARK   36  A    between atoms: _87  and  _88
REMARK   37  A    between atoms: _87  and  _90
REMARK   38  A    between atoms: _90  and  _91
REMARK   39  A    between atoms: _91  and  _92
REMARK   40  A    between atoms: _97  and  _99
REMARK   41  A    between atoms: _99  and  _100
REMARK   42  A    between atoms: _99  and  _102
REMARK   43  A    between atoms: _102  and  _103
REMARK   44  A    between atoms: _103  and  _104
REMARK   45  A    between atoms: _109  and  _111
REMARK   46  A    between atoms: _111  and  _112
REMARK   47  A    between atoms: _111  and  _114
REMARK   48  A    between atoms: _114  and  _115
REMARK   49  A    between atoms: _115  and  _116
REMARK   50  A    between atoms: _116  and  _117
REMARK   51  A    between atoms: _126  and  _128
REMARK   52  A    between atoms: _128  and  _129
REMARK   53  A    between atoms: _128  and  _131
REMARK   54  A    between atoms: _131  and  _132
REMARK   55  A    between atoms: _134  and  _136
REMARK   56  A    between atoms: _136  and  _137
REMARK   57  A    between atoms: _136  and  _139
REMARK   58  A    between atoms: _139  and  _140
REMARK   59  A    between atoms: _143  and  _145
REMARK   60  A    between atoms: _145  and  _146
REMARK   61  A    between atoms: _145  and  _148
REMARK   62  A    between atoms: _148  and  _149
REMARK   63  A    between atoms: _154  and  _155
REMARK   64  A    between atoms: _157  and  _159
REMARK   65  A    between atoms: _159  and  _160
REMARK   66  A    between atoms: _159  and  _162
REMARK   67  A    between atoms: _162  and  _163
REMARK   68  A    between atoms: _169  and  _171
REMARK   69  A    between atoms: _171  and  _172
REMARK   70  A    between atoms: _171  and  _174
REMARK   71  A    between atoms: _174  and  _175
REMARK   72  A    between atoms: _180  and  _181
REMARK   73  A    between atoms: _183  and  _185
REMARK   74  A    between atoms: _185  and  _186
REMARK   75  A    between atoms: _185  and  _188
REMARK   76  A    between atoms: _188  and  _189
REMARK   77  A    between atoms: _189  and  _190
REMARK   78  A    between atoms: _192  and  _194
REMARK   79  A    between atoms: _194  and  _195
REMARK   80  A    between atoms: _194  and  _197
REMARK   81  A    between atoms: _197  and  _198
REMARK   82  A    between atoms: _200  and  _202
REMARK   83  A    between atoms: _202  and  _203
REMARK   84  A    between atoms: _202  and  _205
REMARK   85  A    between atoms: _205  and  _206
REMARK   86  A    between atoms: _216  and  _218
REMARK   87  A    between atoms: _218  and  _219
REMARK   88  A    between atoms: _218  and  _221
REMARK   89  A    between atoms: _221  and  _222
REMARK   90  A    between atoms: _225  and  _227
REMARK   91  A    between atoms: _227  and  _228
REMARK   92  A    between atoms: _227  and  _230
REMARK   93  A    between atoms: _230  and  _231
REMARK   94  A    between atoms: _234  and  _236
REMARK   95  A    between atoms: _236  and  _237
REMARK   96  A    between atoms: _236  and  _239
REMARK   97  A    between atoms: _239  and  _240
REMARK   98  A    between atoms: _240  and  _241
REMARK   99  A    between atoms: _241  and  _242
REMARK  100  A    between atoms: _251  and  _253
REMARK  101  A    between atoms: _253  and  _254
REMARK  102  A    between atoms: _253  and  _256
REMARK  103  A    between atoms: _256  and  _257
REMARK  104  A    between atoms: _262  and  _264
REMARK  105  A    between atoms: _264  and  _265
REMARK  106  A    between atoms: _264  and  _267
REMARK  107  A    between atoms: _267  and  _268
REMARK  108  A    between atoms: _273  and  _275
REMARK  109  A    between atoms: _275  and  _276
REMARK  110  A    between atoms: _275  and  _278
REMARK  111  A    between atoms: _278  and  _279
REMARK  112  A    between atoms: _282  and  _284
REMARK  113  A    between atoms: _284  and  _285
REMARK  114  A    between atoms: _284  and  _287
REMARK  115  A    between atoms: _287  and  _288
REMARK  116  A    between atoms: _288  and  _289
REMARK  117  A    between atoms: _292  and  _294
REMARK  118  A    between atoms: _294  and  _295
REMARK  119  A    between atoms: _294  and  _297
REMARK  120  A    between atoms: _297  and  _298
REMARK  121  A    between atoms: _298  and  _299
REMARK  122  A    between atoms: _299  and  _300
REMARK  123  A    between atoms: _309  and  _311
REMARK  124  A    between atoms: _311  and  _312
REMARK  125  A    between atoms: _311  and  _314
REMARK  126  A    between atoms: _314  and  _315
REMARK  127  A    between atoms: _318  and  _320
REMARK  128  A    between atoms: _320  and  _321
REMARK  129  A    between atoms: _320  and  _323
REMARK  130  A    between atoms: _323  and  _324
REMARK  131  A    between atoms: _324  and  _325
REMARK  132  A    between atoms: _325  and  _326
REMARK  133  A    between atoms: _326  and  _327
REMARK  134  A    between atoms: _331  and  _333
REMARK  135  A    between atoms: _333  and  _334
REMARK  136  A    between atoms: _336  and  _338
REMARK  137  A    between atoms: _338  and  _339
REMARK  138  A    between atoms: _338  and  _341
REMARK  139  A    between atoms: _341  and  _342
REMARK  140  A    between atoms: _347  and  _348
REMARK  141  A    between atoms: _350  and  _352
REMARK  142  A    between atoms: _352  and  _353
REMARK  143  A    between atoms: _356  and  _358
REMARK  144  A    between atoms: _358  and  _359
REMARK  145  A    between atoms: _358  and  _361
REMARK  146  A    between atoms: _361  and  _362
REMARK  147  A    between atoms: _372  and  _374
REMARK  148  A    between atoms: _374  and  _375
REMARK  149  A    between atoms: _374  and  _377
REMARK  150  A    between atoms: _377  and  _378
REMARK  151  A    between atoms: _384  and  _386
REMARK  152  A    between atoms: _386  and  _387
REMARK                            x       y       z     vdW  Elec       q    Type
REMARK                         _______ _______ _______ _____ _____    ______ ____
ROOT
ATOM      1  O   HOH     1      83.287  39.103  63.755  0.00  0.00    +0.000 OA
ENDROOT
TORSDOF 0
REMARK  Name = ../refined-set-2016/2bmk/2bmk_pocket.pdb
REMARK  152 active torsions:
REMARK  status: ('A' for Active; 'I' for Inactive)
REMARK    1  A    between atoms: _1  and  _3
REMARK    2  A    between atoms: _3  and  _4
REMARK    3  A    between atoms: _3  and  _6
REMARK    4  A    between atoms: _9  and  _11
REMARK    5  A    between atoms: _11  and  _12
REMARK    6  A    between atoms: _11  and  _14
REMARK    7  A    between atoms: _14  and  _15
REMARK    8  A    between atoms: _20  and  _22
REMARK    9  A    between atoms: _22  and  _23
REMARK   10  A    between atoms: _22  and  _25
REMARK   11  A    between atoms: _25  and  _26
REMARK   12  A    between atoms: _31  and  _32
REMARK   13  A    between atoms: _34  and  _36
REMARK   14  A    between atoms: _36  and  _37
REMARK   15  A    between atoms: _36  and  _39
REMARK   16  A    between atoms: _39  and  _40
REMARK   17  A    between atoms: _40  and  _41
REMARK   18  A    between atoms: _43  and  _45
REMARK   19  A    between atoms: _45  and  _46
REMARK   20  A    between atoms: _45  and  _48
REMARK   21  A    between atoms: _48  and  _49
REMARK   22  A    between atoms: _54  and  _56
REMARK   23  A    between atoms: _56  and  _57
REMARK   24  A    between atoms: _56  and  _59
REMARK   25  A    between atoms: _59  and  _60
REMARK   26  A    between atoms: _65  and  _66
REMARK   27  A    between atoms: _68  and  _70
REMARK   28  A    between atoms: _70  and  _71
REMARK   29  A    between atoms: _70  and  _73
REMARK   30  A    between atoms: _73  and  _74
REMARK   31  A    between atoms: _76  and  _78
REMARK   32  A    between atoms: _78  and  _79
REMARK   33  A    between atoms: _78  and  _81
REMARK   34  A    between atoms: _81  and  _82
REMARK   35  A    between atoms: _85  and  _87
REMARK   36  A    between atoms: _87  and  _88
REMARK   37  A    between atoms: _87  and  _90
REMARK   38  A    between atoms: _90  and  _91
REMARK   39  A    between atoms: _91  and  _92
REMARK   40  A    between atoms: _97  and  _99
REMARK   41  A    between atoms: _99  and  _100
REMARK   42  A    between atoms: _99  and  _102
REMARK   43  A    between atoms: _102  and  _103
REMARK   44  A    between atoms: _103  and  _104
REMARK   45  A    between atoms: _109  and  _111
REMARK   46  A    between atoms: _111  and  _112
REMARK   47  A    between atoms: _111  and  _114
REMARK   48  A    between atoms: _114  and  _115
REMARK   49  A    between atoms: _115  and  _116
REMARK   50  A    between atoms: _116  and  _117
REMARK   51  A    between atoms: _126  and  _128
REMARK   52  A    between atoms: _128  and  _129
REMARK   53  A    between atoms: _128  and  _131
REMARK   54  A    between atoms: _131  and  _132
REMARK   55  A    between atoms: _134  and  _136
REMARK   56  A    between atoms: _136  and  _137
REMARK   57  A    between atoms: _136  and  _139
REMARK   58  A    between atoms: _139  and  _140
REMARK   59  A    between atoms: _143  and  _145
REMARK   60  A    between atoms: _145  and  _146
REMARK   61  A    between atoms: _145  and  _148
REMARK   62  A    between atoms: _148  and  _149
REMARK   63  A    between atoms: _154  and  _155
REMARK   64  A    between atoms: _157  and  _159
REMARK   65  A    between atoms: _159  and  _160
REMARK   66  A    between atoms: _159  and  _162
REMARK   67  A    between atoms: _162  and  _163
REMARK   68  A    between atoms: _169  and  _171
REMARK   69  A    between atoms: _171  and  _172
REMARK   70  A    between atoms: _171  and  _174
REMARK   71  A    between atoms: _174  and  _175
REMARK   72  A    between atoms: _180  and  _181
REMARK   73  A    between atoms: _183  and  _185
REMARK   74  A    between atoms: _185  and  _186
REMARK   75  A    between atoms: _185  and  _188
REMARK   76  A    between atoms: _188  and  _189
REMARK   77  A    between atoms: _189  and  _190
REMARK   78  A    between atoms: _192  and  _194
REMARK   79  A    between atoms: _194  and  _195
REMARK   80  A    between atoms: _194  and  _197
REMARK   81  A    between atoms: _197  and  _198
REMARK   82  A    between atoms: _200  and  _202
REMARK   83  A    between atoms: _202  and  _203
REMARK   84  A    between atoms: _202  and  _205
REMARK   85  A    between atoms: _205  and  _206
REMARK   86  A    between atoms: _216  and  _218
REMARK   87  A    between atoms: _218  and  _219
REMARK   88  A    between atoms: _218  and  _221
REMARK   89  A    between atoms: _221  and  _222
REMARK   90  A    between atoms: _225  and  _227
REMARK   91  A    between atoms: _227  and  _228
REMARK   92  A    between atoms: _227  and  _230
REMARK   93  A    between atoms: _230  and  _231
REMARK   94  A    between atoms: _234  and  _236
REMARK   95  A    between atoms: _236  and  _237
REMARK   96  A    between atoms: _236  and  _239
REMARK   97  A    between atoms: _239  and  _240
REMARK   98  A    between atoms: _240  and  _241
REMARK   99  A    between atoms: _241  and  _242
REMARK  100  A    between atoms: _251  and  _253
REMARK  101  A    between atoms: _253  and  _254
REMARK  102  A    between atoms: _253  and  _256
REMARK  103  A    between atoms: _256  and  _257
REMARK  104  A    between atoms: _262  and  _264
REMARK  105  A    between atoms: _264  and  _265
REMARK  106  A    between atoms: _264  and  _267
REMARK  107  A    between atoms: _267  and  _268
REMARK  108  A    between atoms: _273  and  _275
REMARK  109  A    between atoms: _275  and  _276
REMARK  110  A    between atoms: _275  and  _278
REMARK  111  A    between atoms: _278  and  _279
REMARK  112  A    between atoms: _282  and  _284
REMARK  113  A    between atoms: _284  and  _285
REMARK  114  A    between atoms: _284  and  _287
REMARK  115  A    between atoms: _287  and  _288
REMARK  116  A    between atoms: _288  and  _289
REMARK  117  A    between atoms: _292  and  _294
REMARK  118  A    between atoms: _294  and  _295
REMARK  119  A    between atoms: _294  and  _297
REMARK  120  A    between atoms: _297  and  _298
REMARK  121  A    between atoms: _298  and  _299
REMARK  122  A    between atoms: _299  and  _300
REMARK  123  A    between atoms: _309  and  _311
REMARK  124  A    between atoms: _311  and  _312
REMARK  125  A    between atoms: _311  and  _314
REMARK  126  A    between atoms: _314  and  _315
REMARK  127  A    between atoms: _318  and  _320
REMARK  128  A    between atoms: _320  and  _321
REMARK  129  A    between atoms: _320  and  _323
REMARK  130  A    between atoms: _323  and  _324
REMARK  131  A    between atoms: _324  and  _325
REMARK  132  A    between atoms: _325  and  _326
REMARK  133  A    between atoms: _326  and  _327
REMARK  134  A    between atoms: _331  and  _333
REMARK  135  A    between atoms: _333  and  _334
REMARK  136  A    between atoms: _336  and  _338
REMARK  137  A    between atoms: _338  and  _339
REMARK  138  A    between atoms: _338  and  _341
REMARK  139  A    between atoms: _341  and  _342
REMARK  140  A    between atoms: _347  and  _348
REMARK  141  A    between atoms: _350  and  _352
REMARK  142  A    between atoms: _352  and  _353
REMARK  143  A    between atoms: _356  and  _358
REMARK  144  A    between atoms: _358  and  _359
REMARK  145  A    between atoms: _358  and  _361
REMARK  146  A    between atoms: _361  and  _362
REMARK  147  A    between atoms: _372  and  _374
REMARK  148  A    between atoms: _374  and  _375
REMARK  149  A    between atoms: _374  and  _377
REMARK  150  A    between atoms: _377  and  _378
REMARK  151  A    between atoms: _384  and  _386
REMARK  152  A    between atoms: _386  and  _387
REMARK                            x       y       z     vdW  Elec       q    Type
REMARK                         _______ _______ _______ _____ _____    ______ ____
ROOT
ATOM      1  O   HOH     1      75.287  35.312  69.854  0.00  0.00    +0.000 OA
ENDROOT
TORSDOF 0
REMARK  Name = ../refined-set-2016/2bmk/2bmk_pocket.pdb
REMARK  152 active torsions:
REMARK  status: ('A' for Active; 'I' for Inactive)
REMARK    1  A    between atoms: _1  and  _3
REMARK    2  A    between atoms: _3  and  _4
REMARK    3  A    between atoms: _3  and  _6
REMARK    4  A    between atoms: _9  and  _11
REMARK    5  A    between atoms: _11  and  _12
REMARK    6  A    between atoms: _11  and  _14
REMARK    7  A    between atoms: _14  and  _15
REMARK    8  A    between atoms: _20  and  _22
REMARK    9  A    between atoms: _22  and  _23
REMARK   10  A    between atoms: _22  and  _25
REMARK   11  A    between atoms: _25  and  _26
REMARK   12  A    between atoms: _31  and  _32
REMARK   13  A    between atoms: _34  and  _36
REMARK   14  A    between atoms: _36  and  _37
REMARK   15  A    between atoms: _36  and  _39
REMARK   16  A    between atoms: _39  and  _40
REMARK   17  A    between atoms: _40  and  _41
REMARK   18  A    between atoms: _43  and  _45
REMARK   19  A    between atoms: _45  and  _46
REMARK   20  A    between atoms: _45  and  _48
REMARK   21  A    between atoms: _48  and  _49
REMARK   22  A    between atoms: _54  and  _56
REMARK   23  A    between atoms: _56  and  _57
REMARK   24  A    between atoms: _56  and  _59
REMARK   25  A    between atoms: _59  and  _60
REMARK   26  A    between atoms: _65  and  _66
REMARK   27  A    between atoms: _68  and  _70
REMARK   28  A    between atoms: _70  and  _71
REMARK   29  A    between atoms: _70  and  _73
REMARK   30  A    between atoms: _73  and  _74
REMARK   31  A    between atoms: _76  and  _78
REMARK   32  A    between atoms: _78  and  _79
REMARK   33  A    between atoms: _78  and  _81
REMARK   34  A    between atoms: _81  and  _82
REMARK   35  A    between atoms: _85  and  _87
REMARK   36  A    between atoms: _87  and  _88
REMARK   37  A    between atoms: _87  and  _90
REMARK   38  A    between atoms: _90  and  _91
REMARK   39  A    between atoms: _91  and  _92
REMARK   40  A    between atoms: _97  and  _99
REMARK   41  A    between atoms: _99  and  _100
REMARK   42  A    between atoms: _99  and  _102
REMARK   43  A    between atoms: _102  and  _103
REMARK   44  A    between atoms: _103  and  _104
REMARK   45  A    between atoms: _109  and  _111
REMARK   46  A    between atoms: _111  and  _112
REMARK   47  A    between atoms: _111  and  _114
REMARK   48  A    between atoms: _114  and  _115
REMARK   49  A    between atoms: _115  and  _116
REMARK   50  A    between atoms: _116  and  _117
REMARK   51  A    between atoms: _126  and  _128
REMARK   52  A    between atoms: _128  and  _129
REMARK   53  A    between atoms: _128  and  _131
REMARK   54  A    between atoms: _131  and  _132
REMARK   55  A    between atoms: _134  and  _136
REMARK   56  A    between atoms: _136  and  _137
REMARK   57  A    between atoms: _136  and  _139
REMARK   58  A    between atoms: _139  and  _140
REMARK   59  A    between atoms: _143  and  _145
REMARK   60  A    between atoms: _145  and  _146
REMARK   61  A    between atoms: _145  and  _148
REMARK   62  A    between atoms: _148  and  _149
REMARK   63  A    between atoms: _154  and  _155
REMARK   64  A    between atoms: _157  and  _159
REMARK   65  A    between atoms: _159  and  _160
REMARK   66  A    between atoms: _159  and  _162
REMARK   67  A    between atoms: _162  and  _163
REMARK   68  A    between atoms: _169  and  _171
REMARK   69  A    between atoms: _171  and  _172
REMARK   70  A    between atoms: _171  and  _174
REMARK   71  A    between atoms: _174  and  _175
REMARK   72  A    between atoms: _180  and  _181
REMARK   73  A    between atoms: _183  and  _185
REMARK   74  A    between atoms: _185  and  _186
REMARK   75  A    between atoms: _185  and  _188
REMARK   76  A    between atoms: _188  and  _189
REMARK   77  A    between atoms: _189  and  _190
REMARK   78  A    between atoms: _192  and  _194
REMARK   79  A    between atoms: _194  and  _195
REMARK   80  A    between atoms: _194  and  _197
REMARK   81  A    between atoms: _197  and  _198
REMARK   82  A    between atoms: _200  and  _202
REMARK   83  A    between atoms: _202  and  _203
REMARK   84  A    between atoms: _202  and  _205
REMARK   85  A    between atoms: _205  and  _206
REMARK   86  A    between atoms: _216  and  _218
REMARK   87  A    between atoms: _218  and  _219
REMARK   88  A    between atoms: _218  and  _221
REMARK   89  A    between atoms: _221  and  _222
REMARK   90  A    between atoms: _225  and  _227
REMARK   91  A    between atoms: _227  and  _228
REMARK   92  A    between atoms: _227  and  _230
REMARK   93  A    between atoms: _230  and  _231
REMARK   94  A    between atoms: _234  and  _236
REMARK   95  A    between atoms: _236  and  _237
REMARK   96  A    between atoms: _236  and  _239
REMARK   97  A    between atoms: _239  and  _240
REMARK   98  A    between atoms: _240  and  _241
REMARK   99  A    between atoms: _241  and  _242
REMARK  100  A    between atoms: _251  and  _253
REMARK  101  A    between atoms: _253  and  _254
REMARK  102  A    between atoms: _253  and  _256
REMARK  103  A    between atoms: _256  and  _257
REMARK  104  A    between atoms: _262  and  _264
REMARK  105  A    between atoms: _264  and  _265
REMARK  106  A    between atoms: _264  and  _267
REMARK  107  A    between atoms: _267  and  _268
REMARK  108  A    between atoms: _273  and  _275
REMARK  109  A    between atoms: _275  and  _276
REMARK  110  A    between atoms: _275  and  _278
REMARK  111  A    between atoms: _278  and  _279
REMARK  112  A    between atoms: _282  and  _284
REMARK  113  A    between atoms: _284  and  _285
REMARK  114  A    between atoms: _284  and  _287
REMARK  115  A    between atoms: _287  and  _288
REMARK  116  A    between atoms: _288  and  _289
REMARK  117  A    between atoms: _292  and  _294
REMARK  118  A    between atoms: _294  and  _295
REMARK  119  A    between atoms: _294  and  _297
REMARK  120  A    between atoms: _297  and  _298
REMARK  121  A    between atoms: _298  and  _299
REMARK  122  A    between atoms: _299  and  _300
REMARK  123  A    between atoms: _309  and  _311
REMARK  124  A    between atoms: _311  and  _312
REMARK  125  A    between atoms: _311  and  _314
REMARK  126  A    between atoms: _314  and  _315
REMARK  127  A    between atoms: _318  and  _320
REMARK  128  A    between atoms: _320  and  _321
REMARK  129  A    between atoms: _320  and  _323
REMARK  130  A    between atoms: _323  and  _324
REMARK  131  A    between atoms: _324  and  _325
REMARK  132  A    between atoms: _325  and  _326
REMARK  133  A    between atoms: _326  and  _327
REMARK  134  A    between atoms: _331  and  _333
REMARK  135  A    between atoms: _333  and  _334
REMARK  136  A    between atoms: _336  and  _338
REMARK  137  A    between atoms: _338  and  _339
REMARK  138  A    between atoms: _338  and  _341
REMARK  139  A    between atoms: _341  and  _342
REMARK  140  A    between atoms: _347  and  _348
REMARK  141  A    between atoms: _350  and  _352
REMARK  142  A    between atoms: _352  and  _353
REMARK  143  A    between atoms: _356  and  _358
REMARK  144  A    between atoms: _358  and  _359
REMARK  145  A    between atoms: _358  and  _361
REMARK  146  A    between atoms: _361  and  _362
REMARK  147  A    between atoms: _372  and  _374
REMARK  148  A    between atoms: _374  and  _375
REMARK  149  A    between atoms: _374  and  _377
REMARK  150  A    between atoms: _377  and  _378
REMARK  151  A    between atoms: _384  and  _386
REMARK  152  A    between atoms: _386  and  _387
REMARK                            x       y       z     vdW  Elec       q    Type
REMARK                         _______ _______ _______ _____ _____    ______ ____
ROOT
ATOM      1  O   HOH     1      80.625  38.555  59.238  0.00  0.00    +0.000 OA
ENDROOT
TORSDOF 0
REMARK  Name = ../refined-set-2016/2bmk/2bmk_pocket.pdb
REMARK  152 active torsions:
REMARK  status: ('A' for Active; 'I' for Inactive)
REMARK    1  A    between atoms: _1  and  _3
REMARK    2  A    between atoms: _3  and  _4
REMARK    3  A    between atoms: _3  and  _6
REMARK    4  A    between atoms: _9  and  _11
REMARK    5  A    between atoms: _11  and  _12
REMARK    6  A    between atoms: _11  and  _14
REMARK    7  A    between atoms: _14  and  _15
REMARK    8  A    between atoms: _20  and  _22
REMARK    9  A    between atoms: _22  and  _23
REMARK   10  A    between atoms: _22  and  _25
REMARK   11  A    between atoms: _25  and  _26
REMARK   12  A    between atoms: _31  and  _32
REMARK   13  A    between atoms: _34  and  _36
REMARK   14  A    between atoms: _36  and  _37
REMARK   15  A    between atoms: _36  and  _39
REMARK   16  A    between atoms: _39  and  _40
REMARK   17  A    between atoms: _40  and  _41
REMARK   18  A    between atoms: _43  and  _45
REMARK   19  A    between atoms: _45  and  _46
REMARK   20  A    between atoms: _45  and  _48
REMARK   21  A    between atoms: _48  and  _49
REMARK   22  A    between atoms: _54  and  _56
REMARK   23  A    between atoms: _56  and  _57
REMARK   24  A    between atoms: _56  and  _59
REMARK   25  A    between atoms: _59  and  _60
REMARK   26  A    between atoms: _65  and  _66
REMARK   27  A    between atoms: _68  and  _70
REMARK   28  A    between atoms: _70  and  _71
REMARK   29  A    between atoms: _70  and  _73
REMARK   30  A    between atoms: _73  and  _74
REMARK   31  A    between atoms: _76  and  _78
REMARK   32  A    between atoms: _78  and  _79
REMARK   33  A    between atoms: _78  and  _81
REMARK   34  A    between atoms: _81  and  _82
REMARK   35  A    between atoms: _85  and  _87
REMARK   36  A    between atoms: _87  and  _88
REMARK   37  A    between atoms: _87  and  _90
REMARK   38  A    between atoms: _90  and  _91
REMARK   39  A    between atoms: _91  and  _92
REMARK   40  A    between atoms: _97  and  _99
REMARK   41  A    between atoms: _99  and  _100
REMARK   42  A    between atoms: _99  and  _102
REMARK   43  A    between atoms: _102  and  _103
REMARK   44  A    between atoms: _103  and  _104
REMARK   45  A    between atoms: _109  and  _111
REMARK   46  A    between atoms: _111  and  _112
REMARK   47  A    between atoms: _111  and  _114
REMARK   48  A    between atoms: _114  and  _115
REMARK   49  A    between atoms: _115  and  _116
REMARK   50  A    between atoms: _116  and  _117
REMARK   51  A    between atoms: _126  and  _128
REMARK   52  A    between atoms: _128  and  _129
REMARK   53  A    between atoms: _128  and  _131
REMARK   54  A    between atoms: _131  and  _132
REMARK   55  A    between atoms: _134  and  _136
REMARK   56  A    between atoms: _136  and  _137
REMARK   57  A    between atoms: _136  and  _139
REMARK   58  A    between atoms: _139  and  _140
REMARK   59  A    between atoms: _143  and  _145
REMARK   60  A    between atoms: _145  and  _146
REMARK   61  A    between atoms: _145  and  _148
REMARK   62  A    between atoms: _148  and  _149
REMARK   63  A    between atoms: _154  and  _155
REMARK   64  A    between atoms: _157  and  _159
REMARK   65  A    between atoms: _159  and  _160
REMARK   66  A    between atoms: _159  and  _162
REMARK   67  A    between atoms: _162  and  _163
REMARK   68  A    between atoms: _169  and  _171
REMARK   69  A    between atoms: _171  and  _172
REMARK   70  A    between atoms: _171  and  _174
REMARK   71  A    between atoms: _174  and  _175
REMARK   72  A    between atoms: _180  and  _181
REMARK   73  A    between atoms: _183  and  _185
REMARK   74  A    between atoms: _185  and  _186
REMARK   75  A    between atoms: _185  and  _188
REMARK   76  A    between atoms: _188  and  _189
REMARK   77  A    between atoms: _189  and  _190
REMARK   78  A    between atoms: _192  and  _194
REMARK   79  A    between atoms: _194  and  _195
REMARK   80  A    between atoms: _194  and  _197
REMARK   81  A    between atoms: _197  and  _198
REMARK   82  A    between atoms: _200  and  _202
REMARK   83  A    between atoms: _202  and  _203
REMARK   84  A    between atoms: _202  and  _205
REMARK   85  A    between atoms: _205  and  _206
REMARK   86  A    between atoms: _216  and  _218
REMARK   87  A    between atoms: _218  and  _219
REMARK   88  A    between atoms: _218  and  _221
REMARK   89  A    between atoms: _221  and  _222
REMARK   90  A    between atoms: _225  and  _227
REMARK   91  A    between atoms: _227  and  _228
REMARK   92  A    between atoms: _227  and  _230
REMARK   93  A    between atoms: _230  and  _231
REMARK   94  A    between atoms: _234  and  _236
REMARK   95  A    between atoms: _236  and  _237
REMARK   96  A    between atoms: _236  and  _239
REMARK   97  A    between atoms: _239  and  _240
REMARK   98  A    between atoms: _240  and  _241
REMARK   99  A    between atoms: _241  and  _242
REMARK  100  A    between atoms: _251  and  _253
REMARK  101  A    between atoms: _253  and  _254
REMARK  102  A    between atoms: _253  and  _256
REMARK  103  A    between atoms: _256  and  _257
REMARK  104  A    between atoms: _262  and  _264
REMARK  105  A    between atoms: _264  and  _265
REMARK  106  A    between atoms: _264  and  _267
REMARK  107  A    between atoms: _267  and  _268
REMARK  108  A    between atoms: _273  and  _275
REMARK  109  A    between atoms: _275  and  _276
REMARK  110  A    between atoms: _275  and  _278
REMARK  111  A    between atoms: _278  and  _279
REMARK  112  A    between atoms: _282  and  _284
REMARK  113  A    between atoms: _284  and  _285
REMARK  114  A    between atoms: _284  and  _287
REMARK  115  A    between atoms: _287  and  _288
REMARK  116  A    between atoms: _288  and  _289
REMARK  117  A    between atoms: _292  and  _294
REMARK  118  A    between atoms: _294  and  _295
REMARK  119  A    between atoms: _294  and  _297
REMARK  120  A    between atoms: _297  and  _298
REMARK  121  A    between atoms: _298  and  _299
REMARK  122  A    between atoms: _299  and  _300
REMARK  123  A    between atoms: _309  and  _311
REMARK  124  A    between atoms: _311  and  _312
REMARK  125  A    between atoms: _311  and  _314
REMARK  126  A    between atoms: _314  and  _315
REMARK  127  A    between atoms: _318  and  _320
REMARK  128  A    between atoms: _320  and  _321
REMARK  129  A    between atoms: _320  and  _323
REMARK  130  A    between atoms: _323  and  _324
REMARK  131  A    between atoms: _324  and  _325
REMARK  132  A    between atoms: _325  and  _326
REMARK  133  A    between atoms: _326  and  _327
REMARK  134  A    between atoms: _331  and  _333
REMARK  135  A    between atoms: _333  and  _334
REMARK  136  A    between atoms: _336  and  _338
REMARK  137  A    between atoms: _338  and  _339
REMARK  138  A    between atoms: _338  and  _341
REMARK  139  A    between atoms: _341  and  _342
REMARK  140  A    between atoms: _347  and  _348
REMARK  141  A    between atoms: _350  and  _352
REMARK  142  A    between atoms: _352  and  _353
REMARK  143  A    between atoms: _356  and  _358
REMARK  144  A    between atoms: _358  and  _359
REMARK  145  A    between atoms: _358  and  _361
REMARK  146  A    between atoms: _361  and  _362
REMARK  147  A    between atoms: _372  and  _374
REMARK  148  A    between atoms: _374  and  _375
REMARK  149  A    between atoms: _374  and  _377
REMARK  150  A    between atoms: _377  and  _378
REMARK  151  A    between atoms: _384  and  _386
REMARK  152  A    between atoms: _386  and  _387
REMARK                            x       y       z     vdW  Elec       q    Type
REMARK                         _______ _______ _______ _____ _____    ______ ____
ROOT
ATOM      1  O   HOH     1      77.252  29.368  60.409  0.00  0.00    +0.000 OA
ENDROOT
TORSDOF 0
REMARK  Name = ../refined-set-2016/2bmk/2bmk_pocket.pdb
REMARK  152 active torsions:
REMARK  status: ('A' for Active; 'I' for Inactive)
REMARK    1  A    between atoms: _1  and  _3
REMARK    2  A    between atoms: _3  and  _4
REMARK    3  A    between atoms: _3  and  _6
REMARK    4  A    between atoms: _9  and  _11
REMARK    5  A    between atoms: _11  and  _12
REMARK    6  A    between atoms: _11  and  _14
REMARK    7  A    between atoms: _14  and  _15
REMARK    8  A    between atoms: _20  and  _22
REMARK    9  A    between atoms: _22  and  _23
REMARK   10  A    between atoms: _22  and  _25
REMARK   11  A    between atoms: _25  and  _26
REMARK   12  A    between atoms: _31  and  _32
REMARK   13  A    between atoms: _34  and  _36
REMARK   14  A    between atoms: _36  and  _37
REMARK   15  A    between atoms: _36  and  _39
REMARK   16  A    between atoms: _39  and  _40
REMARK   17  A    between atoms: _40  and  _41
REMARK   18  A    between atoms: _43  and  _45
REMARK   19  A    between atoms: _45  and  _46
REMARK   20  A    between atoms: _45  and  _48
REMARK   21  A    between atoms: _48  and  _49
REMARK   22  A    between atoms: _54  and  _56
REMARK   23  A    between atoms: _56  and  _57
REMARK   24  A    between atoms: _56  and  _59
REMARK   25  A    between atoms: _59  and  _60
REMARK   26  A    between atoms: _65  and  _66
REMARK   27  A    between atoms: _68  and  _70
REMARK   28  A    between atoms: _70  and  _71
REMARK   29  A    between atoms: _70  and  _73
REMARK   30  A    between atoms: _73  and  _74
REMARK   31  A    between atoms: _76  and  _78
REMARK   32  A    between atoms: _78  and  _79
REMARK   33  A    between atoms: _78  and  _81
REMARK   34  A    between atoms: _81  and  _82
REMARK   35  A    between atoms: _85  and  _87
REMARK   36  A    between atoms: _87  and  _88
REMARK   37  A    between atoms: _87  and  _90
REMARK   38  A    between atoms: _90  and  _91
REMARK   39  A    between atoms: _91  and  _92
REMARK   40  A    between atoms: _97  and  _99
REMARK   41  A    between atoms: _99  and  _100
REMARK   42  A    between atoms: _99  and  _102
REMARK   43  A    between atoms: _102  and  _103
REMARK   44  A    between atoms: _103  and  _104
REMARK   45  A    between atoms: _109  and  _111
REMARK   46  A    between atoms: _111  and  _112
REMARK   47  A    between atoms: _111  and  _114
REMARK   48  A    between atoms: _114  and  _115
REMARK   49  A    between atoms: _115  and  _116
REMARK   50  A    between atoms: _116  and  _117
REMARK   51  A    between atoms: _126  and  _128
REMARK   52  A    between atoms: _128  and  _129
REMARK   53  A    between atoms: _128  and  _131
REMARK   54  A    between atoms: _131  and  _132
REMARK   55  A    between atoms: _134  and  _136
REMARK   56  A    between atoms: _136  and  _137
REMARK   57  A    between atoms: _136  and  _139
REMARK   58  A    between atoms: _139  and  _140
REMARK   59  A    between atoms: _143  and  _145
REMARK   60  A    between atoms: _145  and  _146
REMARK   61  A    between atoms: _145  and  _148
REMARK   62  A    between atoms: _148  and  _149
REMARK   63  A    between atoms: _154  and  _155
REMARK   64  A    between atoms: _157  and  _159
REMARK   65  A    between atoms: _159  and  _160
REMARK   66  A    between atoms: _159  and  _162
REMARK   67  A    between atoms: _162  and  _163
REMARK   68  A    between atoms: _169  and  _171
REMARK   69  A    between atoms: _171  and  _172
REMARK   70  A    between atoms: _171  and  _174
REMARK   71  A    between atoms: _174  and  _175
REMARK   72  A    between atoms: _180  and  _181
REMARK   73  A    between atoms: _183  and  _185
REMARK   74  A    between atoms: _185  and  _186
REMARK   75  A    between atoms: _185  and  _188
REMARK   76  A    between atoms: _188  and  _189
REMARK   77  A    between atoms: _189  and  _190
REMARK   78  A    between atoms: _192  and  _194
REMARK   79  A    between atoms: _194  and  _195
REMARK   80  A    between atoms: _194  and  _197
REMARK   81  A    between atoms: _197  and  _198
REMARK   82  A    between atoms: _200  and  _202
REMARK   83  A    between atoms: _202  and  _203
REMARK   84  A    between atoms: _202  and  _205
REMARK   85  A    between atoms: _205  and  _206
REMARK   86  A    between atoms: _216  and  _218
REMARK   87  A    between atoms: _218  and  _219
REMARK   88  A    between atoms: _218  and  _221
REMARK   89  A    between atoms: _221  and  _222
REMARK   90  A    between atoms: _225  and  _227
REMARK   91  A    between atoms: _227  and  _228
REMARK   92  A    between atoms: _227  and  _230
REMARK   93  A    between atoms: _230  and  _231
REMARK   94  A    between atoms: _234  and  _236
REMARK   95  A    between atoms: _236  and  _237
REMARK   96  A    between atoms: _236  and  _239
REMARK   97  A    between atoms: _239  and  _240
REMARK   98  A    between atoms: _240  and  _241
REMARK   99  A    between atoms: _241  and  _242
REMARK  100  A    between atoms: _251  and  _253
REMARK  101  A    between atoms: _253  and  _254
REMARK  102  A    between atoms: _253  and  _256
REMARK  103  A    between atoms: _256  and  _257
REMARK  104  A    between atoms: _262  and  _264
REMARK  105  A    between atoms: _264  and  _265
REMARK  106  A    between atoms: _264  and  _267
REMARK  107  A    between atoms: _267  and  _268
REMARK  108  A    between atoms: _273  and  _275
REMARK  109  A    between atoms: _275  and  _276
REMARK  110  A    between atoms: _275  and  _278
REMARK  111  A    between atoms: _278  and  _279
REMARK  112  A    between atoms: _282  and  _284
REMARK  113  A    between atoms: _284  and  _285
REMARK  114  A    between atoms: _284  and  _287
REMARK  115  A    between atoms: _287  and  _288
REMARK  116  A    between atoms: _288  and  _289
REMARK  117  A    between atoms: _292  and  _294
REMARK  118  A    between atoms: _294  and  _295
REMARK  119  A    between atoms: _294  and  _297
REMARK  120  A    between atoms: _297  and  _298
REMARK  121  A    between atoms: _298  and  _299
REMARK  122  A    between atoms: _299  and  _300
REMARK  123  A    between atoms: _309  and  _311
REMARK  124  A    between atoms: _311  and  _312
REMARK  125  A    between atoms: _311  and  _314
REMARK  126  A    between atoms: _314  and  _315
REMARK  127  A    between atoms: _318  and  _320
REMARK  128  A    between atoms: _320  and  _321
REMARK  129  A    between atoms: _320  and  _323
REMARK  130  A    between atoms: _323  and  _324
REMARK  131  A    between atoms: _324  and  _325
REMARK  132  A    between atoms: _325  and  _326
REMARK  133  A    between atoms: _326  and  _327
REMARK  134  A    between atoms: _331  and  _333
REMARK  135  A    between atoms: _333  and  _334
REMARK  136  A    between atoms: _336  and  _338
REMARK  137  A    between atoms: _338  and  _339
REMARK  138  A    between atoms: _338  and  _341
REMARK  139  A    between atoms: _341  and  _342
REMARK  140  A    between atoms: _347  and  _348
REMARK  141  A    between atoms: _350  and  _352
REMARK  142  A    between atoms: _352  and  _353
REMARK  143  A    between atoms: _356  and  _358
REMARK  144  A    between atoms: _358  and  _359
REMARK  145  A    between atoms: _358  and  _361
REMARK  146  A    between atoms: _361  and  _362
REMARK  147  A    between atoms: _372  and  _374
REMARK  148  A    between atoms: _374  and  _375
REMARK  149  A    between atoms: _374  and  _377
REMARK  150  A    between atoms: _377  and  _378
REMARK  151  A    between atoms: _384  and  _386
REMARK  152  A    between atoms: _386  and  _387
REMARK                            x       y       z     vdW  Elec       q    Type
REMARK                         _______ _______ _______ _____ _____    ______ ____
ROOT
ATOM      1  O   HOH     1      72.587  29.676  63.555  0.00  0.00    +0.000 OA
ENDROOT
TORSDOF 0
