REMARK  Name = ../refined-set-2016/3d0b/3d0b_pocket.pdb
REMARK  253 active torsions:
REMARK  status: ('A' for Active; 'I' for Inactive)
REMARK    1  A    between atoms: _1  and  _3
REMARK    2  A    between atoms: _3  and  _4
REMARK    3  A    between atoms: _3  and  _6
REMARK    4  A    between atoms: _6  and  _7
REMARK    5  A    between atoms: _13  and  _15
REMARK    6  A    between atoms: _15  and  _16
REMARK    7  A    between atoms: _15  and  _18
REMARK    8  A    between atoms: _18  and  _19
REMARK    9  A    between atoms: _19  and  _20
REMARK   10  A    between atoms: _25  and  _27
REMARK   11  A    between atoms: _27  and  _28
REMARK   12  A    between atoms: _27  and  _30
REMARK   13  A    between atoms: _30  and  _31
REMARK   14  A    between atoms: _34  and  _36
REMARK   15  A    between atoms: _36  and  _37
REMARK   16  A    between atoms: _36  and  _39
REMARK   17  A    between atoms: _39  and  _40
REMARK   18  A    between atoms: _40  and  _41
REMARK   19  A    between atoms: _43  and  _45
REMARK   20  A    between atoms: _45  and  _46
REMARK   21  A    between atoms: _45  and  _48
REMARK   22  A    between atoms: _48  and  _49
REMARK   23  A    between atoms: _49  and  _50
REMARK   24  A    between atoms: _53  and  _55
REMARK   25  A    between atoms: _55  and  _56
REMARK   26  A    between atoms: _55  and  _58
REMARK   27  A    between atoms: _58  and  _59
REMARK   28  A    between atoms: _62  and  _64
REMARK   29  A    between atoms: _64  and  _65
REMARK   30  A    between atoms: _64  and  _67
REMARK   31  A    between atoms: _67  and  _68
REMARK   32  A    between atoms: _71  and  _73
REMARK   33  A    between atoms: _73  and  _74
REMARK   34  A    between atoms: _73  and  _76
REMARK   35  A    between atoms: _76  and  _77
REMARK   36  A    between atoms: _79  and  _81
REMARK   37  A    between atoms: _81  and  _82
REMARK   38  A    between atoms: _81  and  _84
REMARK   39  A    between atoms: _84  and  _85
REMARK   40  A    between atoms: _90  and  _92
REMARK   41  A    between atoms: _92  and  _93
REMARK   42  A    between atoms: _92  and  _95
REMARK   43  A    between atoms: _95  and  _96
REMARK   44  A    between atoms: _98  and  _100
REMARK   45  A    between atoms: _100  and  _101
REMARK   46  A    between atoms: _100  and  _103
REMARK   47  A    between atoms: _103  and  _104
REMARK   48  A    between atoms: _106  and  _108
REMARK   49  A    between atoms: _108  and  _109
REMARK   50  A    between atoms: _108  and  _111
REMARK   51  A    between atoms: _111  and  _112
REMARK   52  A    between atoms: _115  and  _117
REMARK   53  A    between atoms: _117  and  _118
REMARK   54  A    between atoms: _121  and  _123
REMARK   55  A    between atoms: _123  and  _124
REMARK   56  A    between atoms: _123  and  _126
REMARK   57  A    between atoms: _126  and  _127
REMARK   58  A    between atoms: _130  and  _132
REMARK   59  A    between atoms: _132  and  _133
REMARK   60  A    between atoms: _132  and  _135
REMARK   61  A    between atoms: _135  and  _136
REMARK   62  A    between atoms: _139  and  _141
REMARK   63  A    between atoms: _141  and  _142
REMARK   64  A    between atoms: _141  and  _144
REMARK   65  A    between atoms: _144  and  _145
REMARK   66  A    between atoms: _145  and  _146
REMARK   67  A    between atoms: _146  and  _147
REMARK   68  A    between atoms: _147  and  _148
REMARK   69  A    between atoms: _152  and  _154
REMARK   70  A    between atoms: _154  and  _155
REMARK   71  A    between atoms: _154  and  _157
REMARK   72  A    between atoms: _157  and  _158
REMARK   73  A    between atoms: _161  and  _163
REMARK   74  A    between atoms: _163  and  _164
REMARK   75  A    between atoms: _163  and  _166
REMARK   76  A    between atoms: _166  and  _167
REMARK   77  A    between atoms: _170  and  _172
REMARK   78  A    between atoms: _172  and  _173
REMARK   79  A    between atoms: _172  and  _175
REMARK   80  A    between atoms: _175  and  _176
REMARK   81  A    between atoms: _179  and  _181
REMARK   82  A    between atoms: _181  and  _182
REMARK   83  A    between atoms: _181  and  _184
REMARK   84  A    between atoms: _187  and  _189
REMARK   85  A    between atoms: _189  and  _190
REMARK   86  A    between atoms: _189  and  _192
REMARK   87  A    between atoms: _192  and  _193
REMARK   88  A    between atoms: _196  and  _198
REMARK   89  A    between atoms: _198  and  _199
REMARK   90  A    between atoms: _198  and  _201
REMARK   91  A    between atoms: _201  and  _202
REMARK   92  A    between atoms: _205  and  _207
REMARK   93  A    between atoms: _207  and  _208
REMARK   94  A    between atoms: _210  and  _212
REMARK   95  A    between atoms: _212  and  _213
REMARK   96  A    between atoms: _212  and  _215
REMARK   97  A    between atoms: _215  and  _216
REMARK   98  A    between atoms: _219  and  _221
REMARK   99  A    between atoms: _221  and  _222
REMARK  100  A    between atoms: _224  and  _226
REMARK  101  A    between atoms: _226  and  _227
REMARK  102  A    between atoms: _226  and  _229
REMARK  103  A    between atoms: _229  and  _230
REMARK  104  A    between atoms: _230  and  _231
REMARK  105  A    between atoms: _233  and  _235
REMARK  106  A    between atoms: _235  and  _236
REMARK  107  A    between atoms: _235  and  _238
REMARK  108  A    between atoms: _238  and  _239
REMARK  109  A    between atoms: _242  and  _244
REMARK  110  A    between atoms: _244  and  _245
REMARK  111  A    between atoms: _244  and  _247
REMARK  112  A    between atoms: _247  and  _248
REMARK  113  A    between atoms: _251  and  _253
REMARK  114  A    between atoms: _253  and  _254
REMARK  115  A    between atoms: _253  and  _256
REMARK  116  A    between atoms: _256  and  _257
REMARK  117  A    between atoms: _260  and  _262
REMARK  118  A    between atoms: _262  and  _263
REMARK  119  A    between atoms: _262  and  _265
REMARK  120  A    between atoms: _265  and  _266
REMARK  121  A    between atoms: _269  and  _271
REMARK  122  A    between atoms: _271  and  _272
REMARK  123  A    between atoms: _271  and  _274
REMARK  124  A    between atoms: _274  and  _275
REMARK  125  A    between atoms: _280  and  _282
REMARK  126  A    between atoms: _282  and  _283
REMARK  127  A    between atoms: _282  and  _285
REMARK  128  A    between atoms: _285  and  _286
REMARK  129  A    between atoms: _291  and  _293
REMARK  130  A    between atoms: _293  and  _294
REMARK  131  A    between atoms: _293  and  _296
REMARK  132  A    between atoms: _296  and  _297
REMARK  133  A    between atoms: _300  and  _302
REMARK  134  A    between atoms: _302  and  _303
REMARK  135  A    between atoms: _305  and  _307
REMARK  136  A    between atoms: _307  and  _308
REMARK  137  A    between atoms: _307  and  _310
REMARK  138  A    between atoms: _310  and  _311
REMARK  139  A    between atoms: _314  and  _316
REMARK  140  A    between atoms: _316  and  _317
REMARK  141  A    between atoms: _316  and  _319
REMARK  142  A    between atoms: _319  and  _320
REMARK  143  A    between atoms: _323  and  _325
REMARK  144  A    between atoms: _325  and  _326
REMARK  145  A    between atoms: _329  and  _331
REMARK  146  A    between atoms: _331  and  _332
REMARK  147  A    between atoms: _331  and  _334
REMARK  148  A    between atoms: _334  and  _335
REMARK  149  A    between atoms: _335  and  _336
REMARK  150  A    between atoms: _336  and  _337
REMARK  151  A    between atoms: _337  and  _338
REMARK  152  A    between atoms: _342  and  _344
REMARK  153  A    between atoms: _344  and  _345
REMARK  154  A    between atoms: _344  and  _347
REMARK  155  A    between atoms: _347  and  _348
REMARK  156  A    between atoms: _351  and  _353
REMARK  157  A    between atoms: _353  and  _354
REMARK  158  A    between atoms: _353  and  _356
REMARK  159  A    between atoms: _356  and  _357
REMARK  160  A    between atoms: _363  and  _365
REMARK  161  A    between atoms: _365  and  _366
REMARK  162  A    between atoms: _368  and  _370
REMARK  163  A    between atoms: _370  and  _371
REMARK  164  A    between atoms: _370  and  _373
REMARK  165  A    between atoms: _376  and  _378
REMARK  166  A    between atoms: _378  and  _379
REMARK  167  A    between atoms: _381  and  _383
REMARK  168  A    between atoms: _383  and  _384
REMARK  169  A    between atoms: _383  and  _386
REMARK  170  A    between atoms: _386  and  _387
REMARK  171  A    between atoms: _393  and  _395
REMARK  172  A    between atoms: _395  and  _396
REMARK  173  A    between atoms: _395  and  _398
REMARK  174  A    between atoms: _398  and  _399
REMARK  175  A    between atoms: _404  and  _405
REMARK  176  A    between atoms: _407  and  _409
REMARK  177  A    between atoms: _409  and  _410
REMARK  178  A    between atoms: _409  and  _412
REMARK  179  A    between atoms: _412  and  _413
REMARK  180  A    between atoms: _415  and  _417
REMARK  181  A    between atoms: _417  and  _418
REMARK  182  A    between atoms: _417  and  _420
REMARK  183  A    between atoms: _420  and  _421
REMARK  184  A    between atoms: _426  and  _427
REMARK  185  A    between atoms: _429  and  _431
REMARK  186  A    between atoms: _431  and  _432
REMARK  187  A    between atoms: _431  and  _434
REMARK  188  A    between atoms: _437  and  _439
REMARK  189  A    between atoms: _439  and  _440
REMARK  190  A    between atoms: _439  and  _442
REMARK  191  A    between atoms: _442  and  _443
REMARK  192  A    between atoms: _446  and  _448
REMARK  193  A    between atoms: _448  and  _449
REMARK  194  A    between atoms: _448  and  _451
REMARK  195  A    between atoms: _454  and  _456
REMARK  196  A    between atoms: _456  and  _457
REMARK  197  A    between atoms: _456  and  _459
REMARK  198  A    between atoms: _459  and  _460
REMARK  199  A    between atoms: _463  and  _465
REMARK  200  A    between atoms: _465  and  _466
REMARK  201  A    between atoms: _465  and  _468
REMARK  202  A    between atoms: _468  and  _469
REMARK  203  A    between atoms: _472  and  _474
REMARK  204  A    between atoms: _474  and  _475
REMARK  205  A    between atoms: _474  and  _477
REMARK  206  A    between atoms: _477  and  _478
REMARK  207  A    between atoms: _478  and  _479
REMARK  208  A    between atoms: _479  and  _480
REMARK  209  A    between atoms: _480  and  _481
REMARK  210  A    between atoms: _485  and  _487
REMARK  211  A    between atoms: _487  and  _488
REMARK  212  A    between atoms: _487  and  _490
REMARK  213  A    between atoms: _490  and  _491
REMARK  214  A    between atoms: _496  and  _498
REMARK  215  A    between atoms: _498  and  _499
REMARK  216  A    between atoms: _498  and  _501
REMARK  217  A    between atoms: _501  and  _502
REMARK  218  A    between atoms: _512  and  _514
REMARK  219  A    between atoms: _514  and  _515
REMARK  220  A    between atoms: _514  and  _517
REMARK  221  A    between atoms: _517  and  _518
REMARK  222  A    between atoms: _518  and  _519
REMARK  223  A    between atoms: _522  and  _524
REMARK  224  A    between atoms: _524  and  _525
REMARK  225  A    between atoms: _524  and  _527
REMARK  226  A    between atoms: _527  and  _528
REMARK  227  A    between atoms: _530  and  _532
REMARK  228  A    between atoms: _532  and  _533
REMARK  229  A    between atoms: _532  and  _535
REMARK  230  A    between atoms: _535  and  _536
REMARK  231  A    between atoms: _542  and  _544
REMARK  232  A    between atoms: _544  and  _545
REMARK  233  A    between atoms: _544  and  _547
REMARK  234  A    between atoms: _547  and  _548
REMARK  235  A    between atoms: _551  and  _553
REMARK  236  A    between atoms: _553  and  _554
REMARK  237  A    between atoms: _553  and  _556
REMARK  238  A    between atoms: _559  and  _561
REMARK  239  A    between atoms: _561  and  _562
REMARK  240  A    between atoms: _564  and  _566
REMARK  241  A    between atoms: _566  and  _567
REMARK  242  A    between atoms: _566  and  _569
REMARK  243  A    between atoms: _569  and  _570
REMARK  244  A    between atoms: _573  and  _575
REMARK  245  A    between atoms: _575  and  _576
REMARK  246  A    between atoms: _575  and  _578
REMARK  247  A    between atoms: _578  and  _579
REMARK  248  A    between atoms: _579  and  _580
REMARK  249  A    between atoms: _580  and  _581
REMARK  250  A    between atoms: _581  and  _582
REMARK  251  A    between atoms: _586  and  _588
REMARK  252  A    between atoms: _588  and  _589
REMARK  253  A    between atoms: _588  and  _591
REMARK                            x       y       z     vdW  Elec       q    Type
REMARK                         _______ _______ _______ _____ _____    ______ ____
ROOT
ATOM      1  C   PHE A   1      17.535 -16.725 -25.252  0.00  0.00    +0.239 C 
ATOM      2  O   PHE A   1      18.588 -17.321 -25.075  0.00  0.00    -0.274 OA
ATOM      3  N   GLN A   2      17.484 -15.411 -25.417  0.00  0.00    -0.298 N 
ATOM      4  H   GLN A   2      16.610 -14.949 -25.740  0.00  0.00    +0.150 HD
ENDROOT
BRANCH   1   5
ATOM      5  CA  PHE A   1      16.220 -17.485 -25.275  0.00  0.00    +0.149 C 
BRANCH   5   6
ATOM      6  N   PHE A   1      16.460 -18.797 -25.879  0.00  0.00    -0.238 NA
ATOM      7  H   PHE A   1      16.310 -19.661 -25.320  0.00  0.00    +0.142 HD
ENDBRANCH   5   6
BRANCH   5   8
ATOM      8  CB  PHE A   1      15.743 -17.624 -23.832  0.00  0.00    +0.053 C 
BRANCH   8   9
ATOM      9  CG  PHE A   1      14.303 -18.032 -23.691  0.00  0.00    -0.020 A 
ATOM     10  CD2 PHE A   1      13.982 -19.296 -23.216  0.00  0.00    -0.004 A 
ATOM     11  CE2 PHE A   1      12.647 -19.684 -23.054  0.00  0.00    -0.000 A 
ATOM     12  CZ  PHE A   1      11.621 -18.796 -23.381  0.00  0.00    -0.000 A 
ATOM     13  CE1 PHE A   1      11.933 -17.518 -23.845  0.00  0.00    -0.000 A 
ATOM     14  CD1 PHE A   1      13.272 -17.145 -23.999  0.00  0.00    -0.004 A 
ENDBRANCH   8   9
ENDBRANCH   5   8
ENDBRANCH   1   5
BRANCH   3  15
ATOM     15  CA  GLN A   2      18.680 -14.629 -25.136  0.00  0.00    +0.137 C 
BRANCH  15  16
ATOM     16  C   GLN A   2      19.043 -14.785 -23.659  0.00  0.00    +0.227 C 
ATOM     17  O   GLN A   2      18.177 -15.078 -22.809  0.00  0.00    -0.286 OA
ENDBRANCH  15  16
BRANCH  15  18
ATOM     18  CB  GLN A   2      18.539 -13.169 -25.558  0.00  0.00    +0.037 C 
BRANCH  18  19
ATOM     19  CG  GLN A   2      17.216 -12.538 -25.290  0.00  0.00    +0.087 C 
BRANCH  19  20
ATOM     20  CD  GLN A   2      16.963 -11.353 -26.193  0.00  0.00    +0.219 C 
ATOM     21  OE1 GLN A   2      17.860 -10.538 -26.441  0.00  0.00    -0.275 OA
ATOM     22  NE2 GLN A   2      15.738 -11.243 -26.690  0.00  0.00    -0.329 N 
ATOM     23 HE21 GLN A   2      15.015 -11.953 -26.454  0.00  0.00    +0.145 HD
ATOM     24 HE22 GLN A   2      15.500 -10.447 -27.316  0.00  0.00    +0.145 HD
ENDBRANCH  19  20
ENDBRANCH  18  19
ENDBRANCH  15  18
ENDBRANCH   3  15
TORSDOF 9
REMARK  Name = ../refined-set-2016/3d0b/3d0b_pocket.pdb
REMARK  253 active torsions:
REMARK  status: ('A' for Active; 'I' for Inactive)
REMARK    1  A    between atoms: _1  and  _3
REMARK    2  A    between atoms: _3  and  _4
REMARK    3  A    between atoms: _3  and  _6
REMARK    4  A    between atoms: _6  and  _7
REMARK    5  A    between atoms: _13  and  _15
REMARK    6  A    between atoms: _15  and  _16
REMARK    7  A    between atoms: _15  and  _18
REMARK    8  A    between atoms: _18  and  _19
REMARK    9  A    between atoms: _19  and  _20
REMARK   10  A    between atoms: _25  and  _27
REMARK   11  A    between atoms: _27  and  _28
REMARK   12  A    between atoms: _27  and  _30
REMARK   13  A    between atoms: _30  and  _31
REMARK   14  A    between atoms: _34  and  _36
REMARK   15  A    between atoms: _36  and  _37
REMARK   16  A    between atoms: _36  and  _39
REMARK   17  A    between atoms: _39  and  _40
REMARK   18  A    between atoms: _40  and  _41
REMARK   19  A    between atoms: _43  and  _45
REMARK   20  A    between atoms: _45  and  _46
REMARK   21  A    between atoms: _45  and  _48
REMARK   22  A    between atoms: _48  and  _49
REMARK   23  A    between atoms: _49  and  _50
REMARK   24  A    between atoms: _53  and  _55
REMARK   25  A    between atoms: _55  and  _56
REMARK   26  A    between atoms: _55  and  _58
REMARK   27  A    between atoms: _58  and  _59
REMARK   28  A    between atoms: _62  and  _64
REMARK   29  A    between atoms: _64  and  _65
REMARK   30  A    between atoms: _64  and  _67
REMARK   31  A    between atoms: _67  and  _68
REMARK   32  A    between atoms: _71  and  _73
REMARK   33  A    between atoms: _73  and  _74
REMARK   34  A    between atoms: _73  and  _76
REMARK   35  A    between atoms: _76  and  _77
REMARK   36  A    between atoms: _79  and  _81
REMARK   37  A    between atoms: _81  and  _82
REMARK   38  A    between atoms: _81  and  _84
REMARK   39  A    between atoms: _84  and  _85
REMARK   40  A    between atoms: _90  and  _92
REMARK   41  A    between atoms: _92  and  _93
REMARK   42  A    between atoms: _92  and  _95
REMARK   43  A    between atoms: _95  and  _96
REMARK   44  A    between atoms: _98  and  _100
REMARK   45  A    between atoms: _100  and  _101
REMARK   46  A    between atoms: _100  and  _103
REMARK   47  A    between atoms: _103  and  _104
REMARK   48  A    between atoms: _106  and  _108
REMARK   49  A    between atoms: _108  and  _109
REMARK   50  A    between atoms: _108  and  _111
REMARK   51  A    between atoms: _111  and  _112
REMARK   52  A    between atoms: _115  and  _117
REMARK   53  A    between atoms: _117  and  _118
REMARK   54  A    between atoms: _121  and  _123
REMARK   55  A    between atoms: _123  and  _124
REMARK   56  A    between atoms: _123  and  _126
REMARK   57  A    between atoms: _126  and  _127
REMARK   58  A    between atoms: _130  and  _132
REMARK   59  A    between atoms: _132  and  _133
REMARK   60  A    between atoms: _132  and  _135
REMARK   61  A    between atoms: _135  and  _136
REMARK   62  A    between atoms: _139  and  _141
REMARK   63  A    between atoms: _141  and  _142
REMARK   64  A    between atoms: _141  and  _144
REMARK   65  A    between atoms: _144  and  _145
REMARK   66  A    between atoms: _145  and  _146
REMARK   67  A    between atoms: _146  and  _147
REMARK   68  A    between atoms: _147  and  _148
REMARK   69  A    between atoms: _152  and  _154
REMARK   70  A    between atoms: _154  and  _155
REMARK   71  A    between atoms: _154  and  _157
REMARK   72  A    between atoms: _157  and  _158
REMARK   73  A    between atoms: _161  and  _163
REMARK   74  A    between atoms: _163  and  _164
REMARK   75  A    between atoms: _163  and  _166
REMARK   76  A    between atoms: _166  and  _167
REMARK   77  A    between atoms: _170  and  _172
REMARK   78  A    between atoms: _172  and  _173
REMARK   79  A    between atoms: _172  and  _175
REMARK   80  A    between atoms: _175  and  _176
REMARK   81  A    between atoms: _179  and  _181
REMARK   82  A    between atoms: _181  and  _182
REMARK   83  A    between atoms: _181  and  _184
REMARK   84  A    between atoms: _187  and  _189
REMARK   85  A    between atoms: _189  and  _190
REMARK   86  A    between atoms: _189  and  _192
REMARK   87  A    between atoms: _192  and  _193
REMARK   88  A    between atoms: _196  and  _198
REMARK   89  A    between atoms: _198  and  _199
REMARK   90  A    between atoms: _198  and  _201
REMARK   91  A    between atoms: _201  and  _202
REMARK   92  A    between atoms: _205  and  _207
REMARK   93  A    between atoms: _207  and  _208
REMARK   94  A    between atoms: _210  and  _212
REMARK   95  A    between atoms: _212  and  _213
REMARK   96  A    between atoms: _212  and  _215
REMARK   97  A    between atoms: _215  and  _216
REMARK   98  A    between atoms: _219  and  _221
REMARK   99  A    between atoms: _221  and  _222
REMARK  100  A    between atoms: _224  and  _226
REMARK  101  A    between atoms: _226  and  _227
REMARK  102  A    between atoms: _226  and  _229
REMARK  103  A    between atoms: _229  and  _230
REMARK  104  A    between atoms: _230  and  _231
REMARK  105  A    between atoms: _233  and  _235
REMARK  106  A    between atoms: _235  and  _236
REMARK  107  A    between atoms: _235  and  _238
REMARK  108  A    between atoms: _238  and  _239
REMARK  109  A    between atoms: _242  and  _244
REMARK  110  A    between atoms: _244  and  _245
REMARK  111  A    between atoms: _244  and  _247
REMARK  112  A    between atoms: _247  and  _248
REMARK  113  A    between atoms: _251  and  _253
REMARK  114  A    between atoms: _253  and  _254
REMARK  115  A    between atoms: _253  and  _256
REMARK  116  A    between atoms: _256  and  _257
REMARK  117  A    between atoms: _260  and  _262
REMARK  118  A    between atoms: _262  and  _263
REMARK  119  A    between atoms: _262  and  _265
REMARK  120  A    between atoms: _265  and  _266
REMARK  121  A    between atoms: _269  and  _271
REMARK  122  A    between atoms: _271  and  _272
REMARK  123  A    between atoms: _271  and  _274
REMARK  124  A    between atoms: _274  and  _275
REMARK  125  A    between atoms: _280  and  _282
REMARK  126  A    between atoms: _282  and  _283
REMARK  127  A    between atoms: _282  and  _285
REMARK  128  A    between atoms: _285  and  _286
REMARK  129  A    between atoms: _291  and  _293
REMARK  130  A    between atoms: _293  and  _294
REMARK  131  A    between atoms: _293  and  _296
REMARK  132  A    between atoms: _296  and  _297
REMARK  133  A    between atoms: _300  and  _302
REMARK  134  A    between atoms: _302  and  _303
REMARK  135  A    between atoms: _305  and  _307
REMARK  136  A    between atoms: _307  and  _308
REMARK  137  A    between atoms: _307  and  _310
REMARK  138  A    between atoms: _310  and  _311
REMARK  139  A    between atoms: _314  and  _316
REMARK  140  A    between atoms: _316  and  _317
REMARK  141  A    between atoms: _316  and  _319
REMARK  142  A    between atoms: _319  and  _320
REMARK  143  A    between atoms: _323  and  _325
REMARK  144  A    between atoms: _325  and  _326
REMARK  145  A    between atoms: _329  and  _331
REMARK  146  A    between atoms: _331  and  _332
REMARK  147  A    between atoms: _331  and  _334
REMARK  148  A    between atoms: _334  and  _335
REMARK  149  A    between atoms: _335  and  _336
REMARK  150  A    between atoms: _336  and  _337
REMARK  151  A    between atoms: _337  and  _338
REMARK  152  A    between atoms: _342  and  _344
REMARK  153  A    between atoms: _344  and  _345
REMARK  154  A    between atoms: _344  and  _347
REMARK  155  A    between atoms: _347  and  _348
REMARK  156  A    between atoms: _351  and  _353
REMARK  157  A    between atoms: _353  and  _354
REMARK  158  A    between atoms: _353  and  _356
REMARK  159  A    between atoms: _356  and  _357
REMARK  160  A    between atoms: _363  and  _365
REMARK  161  A    between atoms: _365  and  _366
REMARK  162  A    between atoms: _368  and  _370
REMARK  163  A    between atoms: _370  and  _371
REMARK  164  A    between atoms: _370  and  _373
REMARK  165  A    between atoms: _376  and  _378
REMARK  166  A    between atoms: _378  and  _379
REMARK  167  A    between atoms: _381  and  _383
REMARK  168  A    between atoms: _383  and  _384
REMARK  169  A    between atoms: _383  and  _386
REMARK  170  A    between atoms: _386  and  _387
REMARK  171  A    between atoms: _393  and  _395
REMARK  172  A    between atoms: _395  and  _396
REMARK  173  A    between atoms: _395  and  _398
REMARK  174  A    between atoms: _398  and  _399
REMARK  175  A    between atoms: _404  and  _405
REMARK  176  A    between atoms: _407  and  _409
REMARK  177  A    between atoms: _409  and  _410
REMARK  178  A    between atoms: _409  and  _412
REMARK  179  A    between atoms: _412  and  _413
REMARK  180  A    between atoms: _415  and  _417
REMARK  181  A    between atoms: _417  and  _418
REMARK  182  A    between atoms: _417  and  _420
REMARK  183  A    between atoms: _420  and  _421
REMARK  184  A    between atoms: _426  and  _427
REMARK  185  A    between atoms: _429  and  _431
REMARK  186  A    between atoms: _431  and  _432
REMARK  187  A    between atoms: _431  and  _434
REMARK  188  A    between atoms: _437  and  _439
REMARK  189  A    between atoms: _439  and  _440
REMARK  190  A    between atoms: _439  and  _442
REMARK  191  A    between atoms: _442  and  _443
REMARK  192  A    between atoms: _446  and  _448
REMARK  193  A    between atoms: _448  and  _449
REMARK  194  A    between atoms: _448  and  _451
REMARK  195  A    between atoms: _454  and  _456
REMARK  196  A    between atoms: _456  and  _457
REMARK  197  A    between atoms: _456  and  _459
REMARK  198  A    between atoms: _459  and  _460
REMARK  199  A    between atoms: _463  and  _465
REMARK  200  A    between atoms: _465  and  _466
REMARK  201  A    between atoms: _465  and  _468
REMARK  202  A    between atoms: _468  and  _469
REMARK  203  A    between atoms: _472  and  _474
REMARK  204  A    between atoms: _474  and  _475
REMARK  205  A    between atoms: _474  and  _477
REMARK  206  A    between atoms: _477  and  _478
REMARK  207  A    between atoms: _478  and  _479
REMARK  208  A    between atoms: _479  and  _480
REMARK  209  A    between atoms: _480  and  _481
REMARK  210  A    between atoms: _485  and  _487
REMARK  211  A    between atoms: _487  and  _488
REMARK  212  A    between atoms: _487  and  _490
REMARK  213  A    between atoms: _490  and  _491
REMARK  214  A    between atoms: _496  and  _498
REMARK  215  A    between atoms: _498  and  _499
REMARK  216  A    between atoms: _498  and  _501
REMARK  217  A    between atoms: _501  and  _502
REMARK  218  A    between atoms: _512  and  _514
REMARK  219  A    between atoms: _514  and  _515
REMARK  220  A    between atoms: _514  and  _517
REMARK  221  A    between atoms: _517  and  _518
REMARK  222  A    between atoms: _518  and  _519
REMARK  223  A    between atoms: _522  and  _524
REMARK  224  A    between atoms: _524  and  _525
REMARK  225  A    between atoms: _524  and  _527
REMARK  226  A    between atoms: _527  and  _528
REMARK  227  A    between atoms: _530  and  _532
REMARK  228  A    between atoms: _532  and  _533
REMARK  229  A    between atoms: _532  and  _535
REMARK  230  A    between atoms: _535  and  _536
REMARK  231  A    between atoms: _542  and  _544
REMARK  232  A    between atoms: _544  and  _545
REMARK  233  A    between atoms: _544  and  _547
REMARK  234  A    between atoms: _547  and  _548
REMARK  235  A    between atoms: _551  and  _553
REMARK  236  A    between atoms: _553  and  _554
REMARK  237  A    between atoms: _553  and  _556
REMARK  238  A    between atoms: _559  and  _561
REMARK  239  A    between atoms: _561  and  _562
REMARK  240  A    between atoms: _564  and  _566
REMARK  241  A    between atoms: _566  and  _567
REMARK  242  A    between atoms: _566  and  _569
REMARK  243  A    between atoms: _569  and  _570
REMARK  244  A    between atoms: _573  and  _575
REMARK  245  A    between atoms: _575  and  _576
REMARK  246  A    between atoms: _575  and  _578
REMARK  247  A    between atoms: _578  and  _579
REMARK  248  A    between atoms: _579  and  _580
REMARK  249  A    between atoms: _580  and  _581
REMARK  250  A    between atoms: _581  and  _582
REMARK  251  A    between atoms: _586  and  _588
REMARK  252  A    between atoms: _588  and  _589
REMARK  253  A    between atoms: _588  and  _591
REMARK                            x       y       z     vdW  Elec       q    Type
REMARK                         _______ _______ _______ _____ _____    ______ ____
ROOT
ATOM      1  CA  ILE A   1      15.661 -13.766 -20.516  0.00  0.00    +0.133 C 
ENDROOT
BRANCH   1   2
ATOM      2  N   ILE A   1      16.995 -13.173 -20.698  0.00  0.00    -0.239 NA
ATOM      3  H   ILE A   1      17.364 -13.051 -21.663  0.00  0.00    +0.142 HD
ENDBRANCH   1   2
BRANCH   1   4
ATOM      4  C   ILE A   1      15.753 -15.130 -19.826  0.00  0.00    +0.224 C 
ATOM      5  O   ILE A   1      15.008 -15.395 -18.890  0.00  0.00    -0.287 OA
ENDBRANCH   1   4
BRANCH   1   6
ATOM      6  CB  ILE A   1      14.886 -13.889 -21.865  0.00  0.00    +0.023 C 
ATOM      7  CG2 ILE A   1      13.503 -14.539 -21.652  0.00  0.00    +0.002 C 
BRANCH   6   8
ATOM      8  CG1 ILE A   1      14.772 -12.525 -22.571  0.00  0.00    +0.002 C 
ATOM      9  CD1 ILE A   1      14.031 -11.454 -21.797  0.00  0.00    +0.000 C 
ENDBRANCH   6   8
ENDBRANCH   1   6
TORSDOF 4
REMARK  Name = ../refined-set-2016/3d0b/3d0b_pocket.pdb
REMARK  253 active torsions:
REMARK  status: ('A' for Active; 'I' for Inactive)
REMARK    1  A    between atoms: _1  and  _3
REMARK    2  A    between atoms: _3  and  _4
REMARK    3  A    between atoms: _3  and  _6
REMARK    4  A    between atoms: _6  and  _7
REMARK    5  A    between atoms: _13  and  _15
REMARK    6  A    between atoms: _15  and  _16
REMARK    7  A    between atoms: _15  and  _18
REMARK    8  A    between atoms: _18  and  _19
REMARK    9  A    between atoms: _19  and  _20
REMARK   10  A    between atoms: _25  and  _27
REMARK   11  A    between atoms: _27  and  _28
REMARK   12  A    between atoms: _27  and  _30
REMARK   13  A    between atoms: _30  and  _31
REMARK   14  A    between atoms: _34  and  _36
REMARK   15  A    between atoms: _36  and  _37
REMARK   16  A    between atoms: _36  and  _39
REMARK   17  A    between atoms: _39  and  _40
REMARK   18  A    between atoms: _40  and  _41
REMARK   19  A    between atoms: _43  and  _45
REMARK   20  A    between atoms: _45  and  _46
REMARK   21  A    between atoms: _45  and  _48
REMARK   22  A    between atoms: _48  and  _49
REMARK   23  A    between atoms: _49  and  _50
REMARK   24  A    between atoms: _53  and  _55
REMARK   25  A    between atoms: _55  and  _56
REMARK   26  A    between atoms: _55  and  _58
REMARK   27  A    between atoms: _58  and  _59
REMARK   28  A    between atoms: _62  and  _64
REMARK   29  A    between atoms: _64  and  _65
REMARK   30  A    between atoms: _64  and  _67
REMARK   31  A    between atoms: _67  and  _68
REMARK   32  A    between atoms: _71  and  _73
REMARK   33  A    between atoms: _73  and  _74
REMARK   34  A    between atoms: _73  and  _76
REMARK   35  A    between atoms: _76  and  _77
REMARK   36  A    between atoms: _79  and  _81
REMARK   37  A    between atoms: _81  and  _82
REMARK   38  A    between atoms: _81  and  _84
REMARK   39  A    between atoms: _84  and  _85
REMARK   40  A    between atoms: _90  and  _92
REMARK   41  A    between atoms: _92  and  _93
REMARK   42  A    between atoms: _92  and  _95
REMARK   43  A    between atoms: _95  and  _96
REMARK   44  A    between atoms: _98  and  _100
REMARK   45  A    between atoms: _100  and  _101
REMARK   46  A    between atoms: _100  and  _103
REMARK   47  A    between atoms: _103  and  _104
REMARK   48  A    between atoms: _106  and  _108
REMARK   49  A    between atoms: _108  and  _109
REMARK   50  A    between atoms: _108  and  _111
REMARK   51  A    between atoms: _111  and  _112
REMARK   52  A    between atoms: _115  and  _117
REMARK   53  A    between atoms: _117  and  _118
REMARK   54  A    between atoms: _121  and  _123
REMARK   55  A    between atoms: _123  and  _124
REMARK   56  A    between atoms: _123  and  _126
REMARK   57  A    between atoms: _126  and  _127
REMARK   58  A    between atoms: _130  and  _132
REMARK   59  A    between atoms: _132  and  _133
REMARK   60  A    between atoms: _132  and  _135
REMARK   61  A    between atoms: _135  and  _136
REMARK   62  A    between atoms: _139  and  _141
REMARK   63  A    between atoms: _141  and  _142
REMARK   64  A    between atoms: _141  and  _144
REMARK   65  A    between atoms: _144  and  _145
REMARK   66  A    between atoms: _145  and  _146
REMARK   67  A    between atoms: _146  and  _147
REMARK   68  A    between atoms: _147  and  _148
REMARK   69  A    between atoms: _152  and  _154
REMARK   70  A    between atoms: _154  and  _155
REMARK   71  A    between atoms: _154  and  _157
REMARK   72  A    between atoms: _157  and  _158
REMARK   73  A    between atoms: _161  and  _163
REMARK   74  A    between atoms: _163  and  _164
REMARK   75  A    between atoms: _163  and  _166
REMARK   76  A    between atoms: _166  and  _167
REMARK   77  A    between atoms: _170  and  _172
REMARK   78  A    between atoms: _172  and  _173
REMARK   79  A    between atoms: _172  and  _175
REMARK   80  A    between atoms: _175  and  _176
REMARK   81  A    between atoms: _179  and  _181
REMARK   82  A    between atoms: _181  and  _182
REMARK   83  A    between atoms: _181  and  _184
REMARK   84  A    between atoms: _187  and  _189
REMARK   85  A    between atoms: _189  and  _190
REMARK   86  A    between atoms: _189  and  _192
REMARK   87  A    between atoms: _192  and  _193
REMARK   88  A    between atoms: _196  and  _198
REMARK   89  A    between atoms: _198  and  _199
REMARK   90  A    between atoms: _198  and  _201
REMARK   91  A    between atoms: _201  and  _202
REMARK   92  A    between atoms: _205  and  _207
REMARK   93  A    between atoms: _207  and  _208
REMARK   94  A    between atoms: _210  and  _212
REMARK   95  A    between atoms: _212  and  _213
REMARK   96  A    between atoms: _212  and  _215
REMARK   97  A    between atoms: _215  and  _216
REMARK   98  A    between atoms: _219  and  _221
REMARK   99  A    between atoms: _221  and  _222
REMARK  100  A    between atoms: _224  and  _226
REMARK  101  A    between atoms: _226  and  _227
REMARK  102  A    between atoms: _226  and  _229
REMARK  103  A    between atoms: _229  and  _230
REMARK  104  A    between atoms: _230  and  _231
REMARK  105  A    between atoms: _233  and  _235
REMARK  106  A    between atoms: _235  and  _236
REMARK  107  A    between atoms: _235  and  _238
REMARK  108  A    between atoms: _238  and  _239
REMARK  109  A    between atoms: _242  and  _244
REMARK  110  A    between atoms: _244  and  _245
REMARK  111  A    between atoms: _244  and  _247
REMARK  112  A    between atoms: _247  and  _248
REMARK  113  A    between atoms: _251  and  _253
REMARK  114  A    between atoms: _253  and  _254
REMARK  115  A    between atoms: _253  and  _256
REMARK  116  A    between atoms: _256  and  _257
REMARK  117  A    between atoms: _260  and  _262
REMARK  118  A    between atoms: _262  and  _263
REMARK  119  A    between atoms: _262  and  _265
REMARK  120  A    between atoms: _265  and  _266
REMARK  121  A    between atoms: _269  and  _271
REMARK  122  A    between atoms: _271  and  _272
REMARK  123  A    between atoms: _271  and  _274
REMARK  124  A    between atoms: _274  and  _275
REMARK  125  A    between atoms: _280  and  _282
REMARK  126  A    between atoms: _282  and  _283
REMARK  127  A    between atoms: _282  and  _285
REMARK  128  A    between atoms: _285  and  _286
REMARK  129  A    between atoms: _291  and  _293
REMARK  130  A    between atoms: _293  and  _294
REMARK  131  A    between atoms: _293  and  _296
REMARK  132  A    between atoms: _296  and  _297
REMARK  133  A    between atoms: _300  and  _302
REMARK  134  A    between atoms: _302  and  _303
REMARK  135  A    between atoms: _305  and  _307
REMARK  136  A    between atoms: _307  and  _308
REMARK  137  A    between atoms: _307  and  _310
REMARK  138  A    between atoms: _310  and  _311
REMARK  139  A    between atoms: _314  and  _316
REMARK  140  A    between atoms: _316  and  _317
REMARK  141  A    between atoms: _316  and  _319
REMARK  142  A    between atoms: _319  and  _320
REMARK  143  A    between atoms: _323  and  _325
REMARK  144  A    between atoms: _325  and  _326
REMARK  145  A    between atoms: _329  and  _331
REMARK  146  A    between atoms: _331  and  _332
REMARK  147  A    between atoms: _331  and  _334
REMARK  148  A    between atoms: _334  and  _335
REMARK  149  A    between atoms: _335  and  _336
REMARK  150  A    between atoms: _336  and  _337
REMARK  151  A    between atoms: _337  and  _338
REMARK  152  A    between atoms: _342  and  _344
REMARK  153  A    between atoms: _344  and  _345
REMARK  154  A    between atoms: _344  and  _347
REMARK  155  A    between atoms: _347  and  _348
REMARK  156  A    between atoms: _351  and  _353
REMARK  157  A    between atoms: _353  and  _354
REMARK  158  A    between atoms: _353  and  _356
REMARK  159  A    between atoms: _356  and  _357
REMARK  160  A    between atoms: _363  and  _365
REMARK  161  A    between atoms: _365  and  _366
REMARK  162  A    between atoms: _368  and  _370
REMARK  163  A    between atoms: _370  and  _371
REMARK  164  A    between atoms: _370  and  _373
REMARK  165  A    between atoms: _376  and  _378
REMARK  166  A    between atoms: _378  and  _379
REMARK  167  A    between atoms: _381  and  _383
REMARK  168  A    between atoms: _383  and  _384
REMARK  169  A    between atoms: _383  and  _386
REMARK  170  A    between atoms: _386  and  _387
REMARK  171  A    between atoms: _393  and  _395
REMARK  172  A    between atoms: _395  and  _396
REMARK  173  A    between atoms: _395  and  _398
REMARK  174  A    between atoms: _398  and  _399
REMARK  175  A    between atoms: _404  and  _405
REMARK  176  A    between atoms: _407  and  _409
REMARK  177  A    between atoms: _409  and  _410
REMARK  178  A    between atoms: _409  and  _412
REMARK  179  A    between atoms: _412  and  _413
REMARK  180  A    between atoms: _415  and  _417
REMARK  181  A    between atoms: _417  and  _418
REMARK  182  A    between atoms: _417  and  _420
REMARK  183  A    between atoms: _420  and  _421
REMARK  184  A    between atoms: _426  and  _427
REMARK  185  A    between atoms: _429  and  _431
REMARK  186  A    between atoms: _431  and  _432
REMARK  187  A    between atoms: _431  and  _434
REMARK  188  A    between atoms: _437  and  _439
REMARK  189  A    between atoms: _439  and  _440
REMARK  190  A    between atoms: _439  and  _442
REMARK  191  A    between atoms: _442  and  _443
REMARK  192  A    between atoms: _446  and  _448
REMARK  193  A    between atoms: _448  and  _449
REMARK  194  A    between atoms: _448  and  _451
REMARK  195  A    between atoms: _454  and  _456
REMARK  196  A    between atoms: _456  and  _457
REMARK  197  A    between atoms: _456  and  _459
REMARK  198  A    between atoms: _459  and  _460
REMARK  199  A    between atoms: _463  and  _465
REMARK  200  A    between atoms: _465  and  _466
REMARK  201  A    between atoms: _465  and  _468
REMARK  202  A    between atoms: _468  and  _469
REMARK  203  A    between atoms: _472  and  _474
REMARK  204  A    between atoms: _474  and  _475
REMARK  205  A    between atoms: _474  and  _477
REMARK  206  A    between atoms: _477  and  _478
REMARK  207  A    between atoms: _478  and  _479
REMARK  208  A    between atoms: _479  and  _480
REMARK  209  A    between atoms: _480  and  _481
REMARK  210  A    between atoms: _485  and  _487
REMARK  211  A    between atoms: _487  and  _488
REMARK  212  A    between atoms: _487  and  _490
REMARK  213  A    between atoms: _490  and  _491
REMARK  214  A    between atoms: _496  and  _498
REMARK  215  A    between atoms: _498  and  _499
REMARK  216  A    between atoms: _498  and  _501
REMARK  217  A    between atoms: _501  and  _502
REMARK  218  A    between atoms: _512  and  _514
REMARK  219  A    between atoms: _514  and  _515
REMARK  220  A    between atoms: _514  and  _517
REMARK  221  A    between atoms: _517  and  _518
REMARK  222  A    between atoms: _518  and  _519
REMARK  223  A    between atoms: _522  and  _524
REMARK  224  A    between atoms: _524  and  _525
REMARK  225  A    between atoms: _524  and  _527
REMARK  226  A    between atoms: _527  and  _528
REMARK  227  A    between atoms: _530  and  _532
REMARK  228  A    between atoms: _532  and  _533
REMARK  229  A    between atoms: _532  and  _535
REMARK  230  A    between atoms: _535  and  _536
REMARK  231  A    between atoms: _542  and  _544
REMARK  232  A    between atoms: _544  and  _545
REMARK  233  A    between atoms: _544  and  _547
REMARK  234  A    between atoms: _547  and  _548
REMARK  235  A    between atoms: _551  and  _553
REMARK  236  A    between atoms: _553  and  _554
REMARK  237  A    between atoms: _553  and  _556
REMARK  238  A    between atoms: _559  and  _561
REMARK  239  A    between atoms: _561  and  _562
REMARK  240  A    between atoms: _564  and  _566
REMARK  241  A    between atoms: _566  and  _567
REMARK  242  A    between atoms: _566  and  _569
REMARK  243  A    between atoms: _569  and  _570
REMARK  244  A    between atoms: _573  and  _575
REMARK  245  A    between atoms: _575  and  _576
REMARK  246  A    between atoms: _575  and  _578
REMARK  247  A    between atoms: _578  and  _579
REMARK  248  A    between atoms: _579  and  _580
REMARK  249  A    between atoms: _580  and  _581
REMARK  250  A    between atoms: _581  and  _582
REMARK  251  A    between atoms: _586  and  _588
REMARK  252  A    between atoms: _588  and  _589
REMARK  253  A    between atoms: _588  and  _591
REMARK                            x       y       z     vdW  Elec       q    Type
REMARK                         _______ _______ _______ _____ _____    ______ ____
ROOT
ATOM      1  CA  MET A   1      13.256 -17.210 -16.067  0.00  0.00    +0.134 C 
ENDROOT
BRANCH   1   2
ATOM      2  N   MET A   1      14.110 -16.033 -16.256  0.00  0.00    -0.239 NA
ATOM      3  H   MET A   1      14.567 -15.867 -17.175  0.00  0.00    +0.142 HD
ENDBRANCH   1   2
BRANCH   1   4
ATOM      4  C   MET A   1      13.784 -18.114 -14.965  0.00  0.00    +0.224 C 
ATOM      5  O   MET A   1      13.020 -18.617 -14.145  0.00  0.00    -0.287 OA
ENDBRANCH   1   4
BRANCH   1   6
ATOM      6  CB  MET A   1      13.097 -17.962 -17.380  0.00  0.00    +0.037 C 
BRANCH   6   7
ATOM      7  CG  MET A   1      12.236 -17.197 -18.363  0.00  0.00    +0.059 C 
BRANCH   7   8
ATOM      8  SD  MET A   1      12.215 -17.944 -19.996  0.00  0.00    -0.139 S 
ATOM      9  CE  MET A   1      11.053 -19.292 -19.750  0.00  0.00    +0.069 C 
ENDBRANCH   7   8
ENDBRANCH   6   7
ENDBRANCH   1   6
TORSDOF 5
REMARK  Name = ../refined-set-2016/3d0b/3d0b_pocket.pdb
REMARK  253 active torsions:
REMARK  status: ('A' for Active; 'I' for Inactive)
REMARK    1  A    between atoms: _1  and  _3
REMARK    2  A    between atoms: _3  and  _4
REMARK    3  A    between atoms: _3  and  _6
REMARK    4  A    between atoms: _6  and  _7
REMARK    5  A    between atoms: _13  and  _15
REMARK    6  A    between atoms: _15  and  _16
REMARK    7  A    between atoms: _15  and  _18
REMARK    8  A    between atoms: _18  and  _19
REMARK    9  A    between atoms: _19  and  _20
REMARK   10  A    between atoms: _25  and  _27
REMARK   11  A    between atoms: _27  and  _28
REMARK   12  A    between atoms: _27  and  _30
REMARK   13  A    between atoms: _30  and  _31
REMARK   14  A    between atoms: _34  and  _36
REMARK   15  A    between atoms: _36  and  _37
REMARK   16  A    between atoms: _36  and  _39
REMARK   17  A    between atoms: _39  and  _40
REMARK   18  A    between atoms: _40  and  _41
REMARK   19  A    between atoms: _43  and  _45
REMARK   20  A    between atoms: _45  and  _46
REMARK   21  A    between atoms: _45  and  _48
REMARK   22  A    between atoms: _48  and  _49
REMARK   23  A    between atoms: _49  and  _50
REMARK   24  A    between atoms: _53  and  _55
REMARK   25  A    between atoms: _55  and  _56
REMARK   26  A    between atoms: _55  and  _58
REMARK   27  A    between atoms: _58  and  _59
REMARK   28  A    between atoms: _62  and  _64
REMARK   29  A    between atoms: _64  and  _65
REMARK   30  A    between atoms: _64  and  _67
REMARK   31  A    between atoms: _67  and  _68
REMARK   32  A    between atoms: _71  and  _73
REMARK   33  A    between atoms: _73  and  _74
REMARK   34  A    between atoms: _73  and  _76
REMARK   35  A    between atoms: _76  and  _77
REMARK   36  A    between atoms: _79  and  _81
REMARK   37  A    between atoms: _81  and  _82
REMARK   38  A    between atoms: _81  and  _84
REMARK   39  A    between atoms: _84  and  _85
REMARK   40  A    between atoms: _90  and  _92
REMARK   41  A    between atoms: _92  and  _93
REMARK   42  A    between atoms: _92  and  _95
REMARK   43  A    between atoms: _95  and  _96
REMARK   44  A    between atoms: _98  and  _100
REMARK   45  A    between atoms: _100  and  _101
REMARK   46  A    between atoms: _100  and  _103
REMARK   47  A    between atoms: _103  and  _104
REMARK   48  A    between atoms: _106  and  _108
REMARK   49  A    between atoms: _108  and  _109
REMARK   50  A    between atoms: _108  and  _111
REMARK   51  A    between atoms: _111  and  _112
REMARK   52  A    between atoms: _115  and  _117
REMARK   53  A    between atoms: _117  and  _118
REMARK   54  A    between atoms: _121  and  _123
REMARK   55  A    between atoms: _123  and  _124
REMARK   56  A    between atoms: _123  and  _126
REMARK   57  A    between atoms: _126  and  _127
REMARK   58  A    between atoms: _130  and  _132
REMARK   59  A    between atoms: _132  and  _133
REMARK   60  A    between atoms: _132  and  _135
REMARK   61  A    between atoms: _135  and  _136
REMARK   62  A    between atoms: _139  and  _141
REMARK   63  A    between atoms: _141  and  _142
REMARK   64  A    between atoms: _141  and  _144
REMARK   65  A    between atoms: _144  and  _145
REMARK   66  A    between atoms: _145  and  _146
REMARK   67  A    between atoms: _146  and  _147
REMARK   68  A    between atoms: _147  and  _148
REMARK   69  A    between atoms: _152  and  _154
REMARK   70  A    between atoms: _154  and  _155
REMARK   71  A    between atoms: _154  and  _157
REMARK   72  A    between atoms: _157  and  _158
REMARK   73  A    between atoms: _161  and  _163
REMARK   74  A    between atoms: _163  and  _164
REMARK   75  A    between atoms: _163  and  _166
REMARK   76  A    between atoms: _166  and  _167
REMARK   77  A    between atoms: _170  and  _172
REMARK   78  A    between atoms: _172  and  _173
REMARK   79  A    between atoms: _172  and  _175
REMARK   80  A    between atoms: _175  and  _176
REMARK   81  A    between atoms: _179  and  _181
REMARK   82  A    between atoms: _181  and  _182
REMARK   83  A    between atoms: _181  and  _184
REMARK   84  A    between atoms: _187  and  _189
REMARK   85  A    between atoms: _189  and  _190
REMARK   86  A    between atoms: _189  and  _192
REMARK   87  A    between atoms: _192  and  _193
REMARK   88  A    between atoms: _196  and  _198
REMARK   89  A    between atoms: _198  and  _199
REMARK   90  A    between atoms: _198  and  _201
REMARK   91  A    between atoms: _201  and  _202
REMARK   92  A    between atoms: _205  and  _207
REMARK   93  A    between atoms: _207  and  _208
REMARK   94  A    between atoms: _210  and  _212
REMARK   95  A    between atoms: _212  and  _213
REMARK   96  A    between atoms: _212  and  _215
REMARK   97  A    between atoms: _215  and  _216
REMARK   98  A    between atoms: _219  and  _221
REMARK   99  A    between atoms: _221  and  _222
REMARK  100  A    between atoms: _224  and  _226
REMARK  101  A    between atoms: _226  and  _227
REMARK  102  A    between atoms: _226  and  _229
REMARK  103  A    between atoms: _229  and  _230
REMARK  104  A    between atoms: _230  and  _231
REMARK  105  A    between atoms: _233  and  _235
REMARK  106  A    between atoms: _235  and  _236
REMARK  107  A    between atoms: _235  and  _238
REMARK  108  A    between atoms: _238  and  _239
REMARK  109  A    between atoms: _242  and  _244
REMARK  110  A    between atoms: _244  and  _245
REMARK  111  A    between atoms: _244  and  _247
REMARK  112  A    between atoms: _247  and  _248
REMARK  113  A    between atoms: _251  and  _253
REMARK  114  A    between atoms: _253  and  _254
REMARK  115  A    between atoms: _253  and  _256
REMARK  116  A    between atoms: _256  and  _257
REMARK  117  A    between atoms: _260  and  _262
REMARK  118  A    between atoms: _262  and  _263
REMARK  119  A    between atoms: _262  and  _265
REMARK  120  A    between atoms: _265  and  _266
REMARK  121  A    between atoms: _269  and  _271
REMARK  122  A    between atoms: _271  and  _272
REMARK  123  A    between atoms: _271  and  _274
REMARK  124  A    between atoms: _274  and  _275
REMARK  125  A    between atoms: _280  and  _282
REMARK  126  A    between atoms: _282  and  _283
REMARK  127  A    between atoms: _282  and  _285
REMARK  128  A    between atoms: _285  and  _286
REMARK  129  A    between atoms: _291  and  _293
REMARK  130  A    between atoms: _293  and  _294
REMARK  131  A    between atoms: _293  and  _296
REMARK  132  A    between atoms: _296  and  _297
REMARK  133  A    between atoms: _300  and  _302
REMARK  134  A    between atoms: _302  and  _303
REMARK  135  A    between atoms: _305  and  _307
REMARK  136  A    between atoms: _307  and  _308
REMARK  137  A    between atoms: _307  and  _310
REMARK  138  A    between atoms: _310  and  _311
REMARK  139  A    between atoms: _314  and  _316
REMARK  140  A    between atoms: _316  and  _317
REMARK  141  A    between atoms: _316  and  _319
REMARK  142  A    between atoms: _319  and  _320
REMARK  143  A    between atoms: _323  and  _325
REMARK  144  A    between atoms: _325  and  _326
REMARK  145  A    between atoms: _329  and  _331
REMARK  146  A    between atoms: _331  and  _332
REMARK  147  A    between atoms: _331  and  _334
REMARK  148  A    between atoms: _334  and  _335
REMARK  149  A    between atoms: _335  and  _336
REMARK  150  A    between atoms: _336  and  _337
REMARK  151  A    between atoms: _337  and  _338
REMARK  152  A    between atoms: _342  and  _344
REMARK  153  A    between atoms: _344  and  _345
REMARK  154  A    between atoms: _344  and  _347
REMARK  155  A    between atoms: _347  and  _348
REMARK  156  A    between atoms: _351  and  _353
REMARK  157  A    between atoms: _353  and  _354
REMARK  158  A    between atoms: _353  and  _356
REMARK  159  A    between atoms: _356  and  _357
REMARK  160  A    between atoms: _363  and  _365
REMARK  161  A    between atoms: _365  and  _366
REMARK  162  A    between atoms: _368  and  _370
REMARK  163  A    between atoms: _370  and  _371
REMARK  164  A    between atoms: _370  and  _373
REMARK  165  A    between atoms: _376  and  _378
REMARK  166  A    between atoms: _378  and  _379
REMARK  167  A    between atoms: _381  and  _383
REMARK  168  A    between atoms: _383  and  _384
REMARK  169  A    between atoms: _383  and  _386
REMARK  170  A    between atoms: _386  and  _387
REMARK  171  A    between atoms: _393  and  _395
REMARK  172  A    between atoms: _395  and  _396
REMARK  173  A    between atoms: _395  and  _398
REMARK  174  A    between atoms: _398  and  _399
REMARK  175  A    between atoms: _404  and  _405
REMARK  176  A    between atoms: _407  and  _409
REMARK  177  A    between atoms: _409  and  _410
REMARK  178  A    between atoms: _409  and  _412
REMARK  179  A    between atoms: _412  and  _413
REMARK  180  A    between atoms: _415  and  _417
REMARK  181  A    between atoms: _417  and  _418
REMARK  182  A    between atoms: _417  and  _420
REMARK  183  A    between atoms: _420  and  _421
REMARK  184  A    between atoms: _426  and  _427
REMARK  185  A    between atoms: _429  and  _431
REMARK  186  A    between atoms: _431  and  _432
REMARK  187  A    between atoms: _431  and  _434
REMARK  188  A    between atoms: _437  and  _439
REMARK  189  A    between atoms: _439  and  _440
REMARK  190  A    between atoms: _439  and  _442
REMARK  191  A    between atoms: _442  and  _443
REMARK  192  A    between atoms: _446  and  _448
REMARK  193  A    between atoms: _448  and  _449
REMARK  194  A    between atoms: _448  and  _451
REMARK  195  A    between atoms: _454  and  _456
REMARK  196  A    between atoms: _456  and  _457
REMARK  197  A    between atoms: _456  and  _459
REMARK  198  A    between atoms: _459  and  _460
REMARK  199  A    between atoms: _463  and  _465
REMARK  200  A    between atoms: _465  and  _466
REMARK  201  A    between atoms: _465  and  _468
REMARK  202  A    between atoms: _468  and  _469
REMARK  203  A    between atoms: _472  and  _474
REMARK  204  A    between atoms: _474  and  _475
REMARK  205  A    between atoms: _474  and  _477
REMARK  206  A    between atoms: _477  and  _478
REMARK  207  A    between atoms: _478  and  _479
REMARK  208  A    between atoms: _479  and  _480
REMARK  209  A    between atoms: _480  and  _481
REMARK  210  A    between atoms: _485  and  _487
REMARK  211  A    between atoms: _487  and  _488
REMARK  212  A    between atoms: _487  and  _490
REMARK  213  A    between atoms: _490  and  _491
REMARK  214  A    between atoms: _496  and  _498
REMARK  215  A    between atoms: _498  and  _499
REMARK  216  A    between atoms: _498  and  _501
REMARK  217  A    between atoms: _501  and  _502
REMARK  218  A    between atoms: _512  and  _514
REMARK  219  A    between atoms: _514  and  _515
REMARK  220  A    between atoms: _514  and  _517
REMARK  221  A    between atoms: _517  and  _518
REMARK  222  A    between atoms: _518  and  _519
REMARK  223  A    between atoms: _522  and  _524
REMARK  224  A    between atoms: _524  and  _525
REMARK  225  A    between atoms: _524  and  _527
REMARK  226  A    between atoms: _527  and  _528
REMARK  227  A    between atoms: _530  and  _532
REMARK  228  A    between atoms: _532  and  _533
REMARK  229  A    between atoms: _532  and  _535
REMARK  230  A    between atoms: _535  and  _536
REMARK  231  A    between atoms: _542  and  _544
REMARK  232  A    between atoms: _544  and  _545
REMARK  233  A    between atoms: _544  and  _547
REMARK  234  A    between atoms: _547  and  _548
REMARK  235  A    between atoms: _551  and  _553
REMARK  236  A    between atoms: _553  and  _554
REMARK  237  A    between atoms: _553  and  _556
REMARK  238  A    between atoms: _559  and  _561
REMARK  239  A    between atoms: _561  and  _562
REMARK  240  A    between atoms: _564  and  _566
REMARK  241  A    between atoms: _566  and  _567
REMARK  242  A    between atoms: _566  and  _569
REMARK  243  A    between atoms: _569  and  _570
REMARK  244  A    between atoms: _573  and  _575
REMARK  245  A    between atoms: _575  and  _576
REMARK  246  A    between atoms: _575  and  _578
REMARK  247  A    between atoms: _578  and  _579
REMARK  248  A    between atoms: _579  and  _580
REMARK  249  A    between atoms: _580  and  _581
REMARK  250  A    between atoms: _581  and  _582
REMARK  251  A    between atoms: _586  and  _588
REMARK  252  A    between atoms: _588  and  _589
REMARK  253  A    between atoms: _588  and  _591
REMARK                            x       y       z     vdW  Elec       q    Type
REMARK                         _______ _______ _______ _____ _____    ______ ____
ROOT
ATOM      1  CA  SER A   7      -6.076  -6.002 -21.194  0.00  0.00    +0.178 C 
ENDROOT
BRANCH   1   3
ATOM      2  C   SER A   6      -5.382  -8.104 -22.247  0.00  0.00    +0.243 C 
ATOM      3  N   SER A   7      -5.499  -7.357 -21.150  0.00  0.00    -0.295 N 
ATOM      4  H   SER A   7      -5.175  -7.740 -20.239  0.00  0.00    +0.150 HD
ATOM      5  O   SER A   6      -5.774  -7.744 -23.359  0.00  0.00    -0.273 OA
BRANCH   2   6
ATOM      6  CA  SER A   6      -4.720  -9.472 -22.065  0.00  0.00    +0.178 C 
BRANCH   6   8
ATOM      7  C   ASN A   5      -2.451  -8.622 -21.767  0.00  0.00    +0.241 C 
ATOM      8  N   SER A   6      -3.469  -9.349 -21.319  0.00  0.00    -0.295 N 
ATOM      9  H   SER A   6      -3.373  -9.845 -20.410  0.00  0.00    +0.150 HD
ATOM     10  O   ASN A   5      -2.469  -8.027 -22.851  0.00  0.00    -0.273 OA
BRANCH   7  11
ATOM     11  CA  ASN A   5      -1.233  -8.541 -20.846  0.00  0.00    +0.158 C 
BRANCH  11  13
ATOM     12  C   SER A   4      -2.362  -7.198 -19.139  0.00  0.00    +0.243 C 
ATOM     13  N   ASN A   5      -1.643  -8.274 -19.468  0.00  0.00    -0.297 N 
ATOM     14  H   ASN A   5      -1.366  -8.943 -18.721  0.00  0.00    +0.150 HD
ATOM     15  O   SER A   4      -2.661  -6.319 -19.940  0.00  0.00    -0.273 OA
BRANCH  12  16
ATOM     16  CA  SER A   4      -2.804  -7.100 -17.685  0.00  0.00    +0.178 C 
BRANCH  16  18
ATOM     17  C   ILE A   3      -4.386  -8.979 -17.750  0.00  0.00    +0.241 C 
ATOM     18  N   SER A   4      -3.333  -8.380 -17.194  0.00  0.00    -0.295 N 
ATOM     19  H   SER A   4      -2.869  -8.835 -16.383  0.00  0.00    +0.150 HD
ATOM     20  O   ILE A   3      -5.028  -8.476 -18.676  0.00  0.00    -0.273 OA
BRANCH  17  21
ATOM     21  CA  ILE A   3      -4.757 -10.375 -17.206  0.00  0.00    +0.149 C 
BRANCH  21  23
ATOM     22  C   LEU A   2      -2.696 -11.483 -17.878  0.00  0.00    +0.241 C 
ATOM     23  N   ILE A   3      -3.535 -11.137 -16.902  0.00  0.00    -0.297 N 
ATOM     24  H   ILE A   3      -3.325 -11.407 -15.920  0.00  0.00    +0.150 HD
ATOM     25  O   LEU A   2      -2.912 -11.237 -19.067  0.00  0.00    -0.273 OA
BRANCH  22  26
ATOM     26  CA  LEU A   2      -1.401 -12.193 -17.464  0.00  0.00    +0.149 C 
BRANCH  26  28
ATOM     27  C   GLU A   1      -0.317 -10.411 -16.232  0.00  0.00    +0.238 C 
ATOM     28  N   LEU A   2      -0.845 -11.632 -16.238  0.00  0.00    -0.297 N 
ATOM     29  H   LEU A   2      -0.861 -12.191 -15.361  0.00  0.00    +0.150 HD
ATOM     30  O   GLU A   1      -0.213  -9.727 -17.253  0.00  0.00    -0.274 OA
BRANCH  27  31
ATOM     31  CA  GLU A   1       0.203  -9.909 -14.888  0.00  0.00    +0.145 C 
BRANCH  31  32
ATOM     32  N   GLU A   1      -0.712 -10.228 -13.791  0.00  0.00    -0.238 NA
ATOM     33  H   GLU A   1      -0.430 -10.917 -13.065  0.00  0.00    +0.142 HD
ENDBRANCH  31  32
BRANCH  31  34
ATOM     34  CB  GLU A   1       1.613 -10.454 -14.617  0.00  0.00    +0.038 C 
BRANCH  34  35
ATOM     35  CG  GLU A   1       2.255  -9.871 -13.324  0.00  0.00    +0.116 C 
BRANCH  35  36
ATOM     36  CD  GLU A   1       2.289  -8.334 -13.307  0.00  0.00    +0.365 C 
ATOM     37  OE2 GLU A   1       2.152  -7.737 -12.217  0.00  0.00    -0.246 OA
ATOM     38  OE1 GLU A   1       2.470  -7.735 -14.373  0.00  0.00    -0.246 OA
ENDBRANCH  35  36
ENDBRANCH  34  35
ENDBRANCH  31  34
ENDBRANCH  27  31
ENDBRANCH  26  28
BRANCH  26  39
ATOM     39  CB  LEU A   2      -1.596 -13.701 -17.328  0.00  0.00    +0.029 C 
BRANCH  39  40
ATOM     40  CG  LEU A   2      -0.287 -14.450 -17.034  0.00  0.00    +0.002 C 
ATOM     41  CD2 LEU A   2      -0.604 -15.932 -16.877  0.00  0.00    +0.000 C 
ATOM     42  CD1 LEU A   2       0.773 -14.240 -18.121  0.00  0.00    +0.000 C 
ENDBRANCH  39  40
ENDBRANCH  26  39
ENDBRANCH  22  26
ENDBRANCH  21  23
BRANCH  21  43
ATOM     43  CB  ILE A   3      -5.707 -10.311 -15.972  0.00  0.00    +0.027 C 
ATOM     44  CG2 ILE A   3      -6.827  -9.275 -16.180  0.00  0.00    +0.002 C 
BRANCH  43  45
ATOM     45  CG1 ILE A   3      -6.291 -11.704 -15.671  0.00  0.00    +0.002 C 
ATOM     46  CD1 ILE A   3      -7.115 -11.778 -14.367  0.00  0.00    +0.000 C 
ENDBRANCH  43  45
ENDBRANCH  21  43
ENDBRANCH  17  21
ENDBRANCH  16  18
BRANCH  16  47
ATOM     47  CB  SER A   4      -1.650  -6.619 -16.800  0.00  0.00    +0.166 C 
BRANCH  47  48
ATOM     48  OG  SER A   4      -1.098  -5.402 -17.266  0.00  0.00    -0.380 OA
ATOM     49  H   SER A   4      -1.799  -4.703 -17.269  0.00  0.00    +0.211 HD
ENDBRANCH  47  48
ENDBRANCH  16  47
ENDBRANCH  12  16
ENDBRANCH  11  13
BRANCH  11  50
ATOM     50  CB  ASN A   5      -0.445  -9.852 -20.929  0.00  0.00    +0.114 C 
BRANCH  50  51
ATOM     51  CG  ASN A   5       0.954  -9.748 -20.331  0.00  0.00    +0.222 C 
ATOM     52  ND2 ASN A   5       1.508 -10.894 -19.955  0.00  0.00    -0.329 N 
ATOM     53 HD21 ASN A   5       2.463 -10.899 -19.542  0.00  0.00    +0.145 HD
ATOM     54 HD22 ASN A   5       0.988 -11.787 -20.073  0.00  0.00    +0.145 HD
ATOM     55  OD1 ASN A   5       1.528  -8.660 -20.213  0.00  0.00    -0.275 OA
ENDBRANCH  50  51
ENDBRANCH  11  50
ENDBRANCH   7  11
ENDBRANCH   6   8
BRANCH   6  56
ATOM     56  CB  SER A   6      -5.672 -10.436 -21.354  0.00  0.00    +0.166 C 
BRANCH  56  57
ATOM     57  OG  SER A   6      -5.194 -11.782 -21.431  0.00  0.00    -0.380 OA
ATOM     58  H   SER A   6      -5.121 -12.051 -22.381  0.00  0.00    +0.211 HD
ENDBRANCH  56  57
ENDBRANCH   6  56
ENDBRANCH   2   6
ENDBRANCH   1   3
BRANCH   1  59
ATOM     59  C   SER A   7      -5.343  -5.096 -22.193  0.00  0.00    +0.243 C 
ATOM     60  N   ASP A   8      -4.012  -5.103 -22.141  0.00  0.00    -0.296 N 
ATOM     61  H   ASP A   8      -3.533  -5.678 -21.418  0.00  0.00    +0.150 HD
ATOM     62  O   SER A   7      -5.978  -4.421 -23.023  0.00  0.00    -0.273 OA
BRANCH  60  63
ATOM     63  CA  ASP A   8      -3.204  -4.313 -23.087  0.00  0.00    +0.160 C 
BRANCH  63  64
ATOM     64  C   ASP A   8      -3.464  -4.724 -24.543  0.00  0.00    +0.241 C 
ATOM     65  N   ALA A   9      -3.572  -6.036 -24.776  0.00  0.00    -0.297 N 
ATOM     66  H   ALA A   9      -3.475  -6.698 -23.980  0.00  0.00    +0.150 HD
ATOM     67  O   ASP A   8      -3.557  -3.875 -25.438  0.00  0.00    -0.273 OA
BRANCH  65  68
ATOM     68  CA  ALA A   9      -3.824  -6.573 -26.123  0.00  0.00    +0.149 C 
ATOM     69  CB  ALA A   9      -3.666  -8.079 -26.106  0.00  0.00    +0.031 C 
BRANCH  68  70
ATOM     70  C   ALA A   9      -5.217  -6.191 -26.620  0.00  0.00    +0.241 C 
ATOM     71  N   LEU A  10      -6.178  -6.184 -25.701  0.00  0.00    -0.297 N 
ATOM     72  H   LEU A  10      -5.960  -6.494 -24.732  0.00  0.00    +0.150 HD
ATOM     73  O   ALA A   9      -5.422  -5.913 -27.812  0.00  0.00    -0.273 OA
BRANCH  71  74
ATOM     74  CA  LEU A  10      -7.537  -5.748 -26.028  0.00  0.00    +0.149 C 
BRANCH  74  75
ATOM     75  C   LEU A  10      -7.578  -4.245 -26.316  0.00  0.00    +0.241 C 
ATOM     76  N   ASP A  11      -6.898  -3.449 -25.490  0.00  0.00    -0.297 N 
ATOM     77  H   ASP A  11      -6.439  -3.854 -24.650  0.00  0.00    +0.150 HD
ATOM     78  O   LEU A  10      -8.201  -3.819 -27.289  0.00  0.00    -0.273 OA
BRANCH  76  79
ATOM     79  CA  ASP A  11      -6.788  -1.992 -25.754  0.00  0.00    +0.160 C 
BRANCH  79  80
ATOM     80  C   ASP A  11      -6.232  -1.751 -27.157  0.00  0.00    +0.241 C 
ATOM     81  N   LYS A  12      -5.217  -2.538 -27.518  0.00  0.00    -0.297 N 
ATOM     82  H   LYS A  12      -4.921  -3.309 -26.886  0.00  0.00    +0.150 HD
ATOM     83  O   ASP A  11      -6.703  -0.862 -27.892  0.00  0.00    -0.273 OA
BRANCH  81  84
ATOM     84  CA  LYS A  12      -4.510  -2.340 -28.787  0.00  0.00    +0.149 C 
BRANCH  84  85
ATOM     85  C   LYS A  12      -5.401  -2.583 -30.003  0.00  0.00    +0.241 C 
ATOM     86  N   ILE A  13      -6.082  -3.725 -30.040  0.00  0.00    -0.298 N 
ATOM     87  H   ILE A  13      -5.960  -4.431 -29.286  0.00  0.00    +0.150 HD
ATOM     88  O   LYS A  12      -5.479  -1.740 -30.894  0.00  0.00    -0.273 OA
BRANCH  86  89
ATOM     89  CA  ILE A  13      -7.007  -3.985 -31.151  0.00  0.00    +0.137 C 
BRANCH  89  90
ATOM     90  C   ILE A  13      -8.184  -2.991 -31.165  0.00  0.00    +0.227 C 
ATOM     91  O   ILE A  13      -8.609  -2.539 -32.245  0.00  0.00    -0.286 OA
ENDBRANCH  89  90
BRANCH  89  92
ATOM     92  CB  ILE A  13      -7.480  -5.475 -31.192  0.00  0.00    +0.026 C 
ATOM     93  CG2 ILE A  13      -8.352  -5.813 -29.979  0.00  0.00    +0.002 C 
BRANCH  92  94
ATOM     94  CG1 ILE A  13      -8.168  -5.804 -32.534  0.00  0.00    +0.002 C 
ATOM     95  CD1 ILE A  13      -7.229  -5.724 -33.744  0.00  0.00    +0.000 C 
ENDBRANCH  92  94
ENDBRANCH  89  92
ENDBRANCH  86  89
ENDBRANCH  84  85
BRANCH  84  96
ATOM     96  CB  LYS A  12      -3.231  -3.185 -28.862  0.00  0.00    +0.029 C 
BRANCH  96  97
ATOM     97  CG  LYS A  12      -2.341  -2.802 -30.051  0.00  0.00    +0.000 C 
BRANCH  97  98
ATOM     98  CD  LYS A  12      -0.942  -3.349 -29.896  0.00  0.00    -0.024 C 
BRANCH  98  99
ATOM     99  CE  LYS A  12       0.016  -2.679 -30.866  0.00  0.00    -0.086 C 
BRANCH  99 100
ATOM    100  NZ  LYS A  12       1.408  -3.220 -30.717  0.00  0.00    +0.380 N 
ATOM    101  HZ1 LYS A  12       1.743  -3.049 -29.748  0.00  0.00    -0.089 HD
ATOM    102  HZ2 LYS A  12       1.404  -4.242 -30.908  0.00  0.00    -0.089 HD
ATOM    103  HZ3 LYS A  12       2.038  -2.743 -31.393  0.00  0.00    -0.089 HD
ENDBRANCH  99 100
ENDBRANCH  98  99
ENDBRANCH  97  98
ENDBRANCH  96  97
ENDBRANCH  84  96
ENDBRANCH  81  84
ENDBRANCH  79  80
BRANCH  79 104
ATOM    104  CB  ASP A  11      -5.839  -1.321 -24.761  0.00  0.00    +0.143 C 
BRANCH 104 105
ATOM    105  CG  ASP A  11      -6.441  -1.138 -23.382  0.00  0.00    +0.367 C 
ATOM    106  OD2 ASP A  11      -5.653  -0.793 -22.481  0.00  0.00    -0.246 OA
ATOM    107  OD1 ASP A  11      -7.662  -1.317 -23.192  0.00  0.00    -0.246 OA
ENDBRANCH 104 105
ENDBRANCH  79 104
ENDBRANCH  76  79
ENDBRANCH  74  75
BRANCH  74 108
ATOM    108  CB  LEU A  10      -8.502  -6.129 -24.908  0.00  0.00    +0.029 C 
BRANCH 108 109
ATOM    109  CG  LEU A  10      -8.755  -7.651 -24.884  0.00  0.00    +0.002 C 
ATOM    110  CD2 LEU A  10      -9.175  -8.095 -23.494  0.00  0.00    +0.000 C 
ATOM    111  CD1 LEU A  10      -9.799  -8.020 -25.931  0.00  0.00    +0.000 C 
ENDBRANCH 108 109
ENDBRANCH  74 108
ENDBRANCH  71  74
ENDBRANCH  68  70
ENDBRANCH  65  68
ENDBRANCH  63  64
BRANCH  63 112
ATOM    112  CB  ASP A   8      -1.711  -4.442 -22.775  0.00  0.00    +0.143 C 
BRANCH 112 113
ATOM    113  CG  ASP A   8      -1.300  -3.745 -21.470  0.00  0.00    +0.367 C 
ATOM    114  OD2 ASP A   8      -2.124  -3.049 -20.834  0.00  0.00    -0.246 OA
ATOM    115  OD1 ASP A   8      -0.118  -3.904 -21.086  0.00  0.00    -0.246 OA
ENDBRANCH 112 113
ENDBRANCH  63 112
ENDBRANCH  60  63
ENDBRANCH   1  59
BRANCH   1 116
ATOM    116  CB  SER A   7      -6.080  -5.392 -19.791  0.00  0.00    +0.166 C 
BRANCH 116 117
ATOM    117  OG  SER A   7      -6.718  -4.128 -19.803  0.00  0.00    -0.380 OA
ATOM    118  H   SER A   7      -6.234  -3.521 -20.417  0.00  0.00    +0.211 HD
ENDBRANCH 116 117
ENDBRANCH   1 116
TORSDOF 54
REMARK  Name = ../refined-set-2016/3d0b/3d0b_pocket.pdb
REMARK  253 active torsions:
REMARK  status: ('A' for Active; 'I' for Inactive)
REMARK    1  A    between atoms: _1  and  _3
REMARK    2  A    between atoms: _3  and  _4
REMARK    3  A    between atoms: _3  and  _6
REMARK    4  A    between atoms: _6  and  _7
REMARK    5  A    between atoms: _13  and  _15
REMARK    6  A    between atoms: _15  and  _16
REMARK    7  A    between atoms: _15  and  _18
REMARK    8  A    between atoms: _18  and  _19
REMARK    9  A    between atoms: _19  and  _20
REMARK   10  A    between atoms: _25  and  _27
REMARK   11  A    between atoms: _27  and  _28
REMARK   12  A    between atoms: _27  and  _30
REMARK   13  A    between atoms: _30  and  _31
REMARK   14  A    between atoms: _34  and  _36
REMARK   15  A    between atoms: _36  and  _37
REMARK   16  A    between atoms: _36  and  _39
REMARK   17  A    between atoms: _39  and  _40
REMARK   18  A    between atoms: _40  and  _41
REMARK   19  A    between atoms: _43  and  _45
REMARK   20  A    between atoms: _45  and  _46
REMARK   21  A    between atoms: _45  and  _48
REMARK   22  A    between atoms: _48  and  _49
REMARK   23  A    between atoms: _49  and  _50
REMARK   24  A    between atoms: _53  and  _55
REMARK   25  A    between atoms: _55  and  _56
REMARK   26  A    between atoms: _55  and  _58
REMARK   27  A    between atoms: _58  and  _59
REMARK   28  A    between atoms: _62  and  _64
REMARK   29  A    between atoms: _64  and  _65
REMARK   30  A    between atoms: _64  and  _67
REMARK   31  A    between atoms: _67  and  _68
REMARK   32  A    between atoms: _71  and  _73
REMARK   33  A    between atoms: _73  and  _74
REMARK   34  A    between atoms: _73  and  _76
REMARK   35  A    between atoms: _76  and  _77
REMARK   36  A    between atoms: _79  and  _81
REMARK   37  A    between atoms: _81  and  _82
REMARK   38  A    between atoms: _81  and  _84
REMARK   39  A    between atoms: _84  and  _85
REMARK   40  A    between atoms: _90  and  _92
REMARK   41  A    between atoms: _92  and  _93
REMARK   42  A    between atoms: _92  and  _95
REMARK   43  A    between atoms: _95  and  _96
REMARK   44  A    between atoms: _98  and  _100
REMARK   45  A    between atoms: _100  and  _101
REMARK   46  A    between atoms: _100  and  _103
REMARK   47  A    between atoms: _103  and  _104
REMARK   48  A    between atoms: _106  and  _108
REMARK   49  A    between atoms: _108  and  _109
REMARK   50  A    between atoms: _108  and  _111
REMARK   51  A    between atoms: _111  and  _112
REMARK   52  A    between atoms: _115  and  _117
REMARK   53  A    between atoms: _117  and  _118
REMARK   54  A    between atoms: _121  and  _123
REMARK   55  A    between atoms: _123  and  _124
REMARK   56  A    between atoms: _123  and  _126
REMARK   57  A    between atoms: _126  and  _127
REMARK   58  A    between atoms: _130  and  _132
REMARK   59  A    between atoms: _132  and  _133
REMARK   60  A    between atoms: _132  and  _135
REMARK   61  A    between atoms: _135  and  _136
REMARK   62  A    between atoms: _139  and  _141
REMARK   63  A    between atoms: _141  and  _142
REMARK   64  A    between atoms: _141  and  _144
REMARK   65  A    between atoms: _144  and  _145
REMARK   66  A    between atoms: _145  and  _146
REMARK   67  A    between atoms: _146  and  _147
REMARK   68  A    between atoms: _147  and  _148
REMARK   69  A    between atoms: _152  and  _154
REMARK   70  A    between atoms: _154  and  _155
REMARK   71  A    between atoms: _154  and  _157
REMARK   72  A    between atoms: _157  and  _158
REMARK   73  A    between atoms: _161  and  _163
REMARK   74  A    between atoms: _163  and  _164
REMARK   75  A    between atoms: _163  and  _166
REMARK   76  A    between atoms: _166  and  _167
REMARK   77  A    between atoms: _170  and  _172
REMARK   78  A    between atoms: _172  and  _173
REMARK   79  A    between atoms: _172  and  _175
REMARK   80  A    between atoms: _175  and  _176
REMARK   81  A    between atoms: _179  and  _181
REMARK   82  A    between atoms: _181  and  _182
REMARK   83  A    between atoms: _181  and  _184
REMARK   84  A    between atoms: _187  and  _189
REMARK   85  A    between atoms: _189  and  _190
REMARK   86  A    between atoms: _189  and  _192
REMARK   87  A    between atoms: _192  and  _193
REMARK   88  A    between atoms: _196  and  _198
REMARK   89  A    between atoms: _198  and  _199
REMARK   90  A    between atoms: _198  and  _201
REMARK   91  A    between atoms: _201  and  _202
REMARK   92  A    between atoms: _205  and  _207
REMARK   93  A    between atoms: _207  and  _208
REMARK   94  A    between atoms: _210  and  _212
REMARK   95  A    between atoms: _212  and  _213
REMARK   96  A    between atoms: _212  and  _215
REMARK   97  A    between atoms: _215  and  _216
REMARK   98  A    between atoms: _219  and  _221
REMARK   99  A    between atoms: _221  and  _222
REMARK  100  A    between atoms: _224  and  _226
REMARK  101  A    between atoms: _226  and  _227
REMARK  102  A    between atoms: _226  and  _229
REMARK  103  A    between atoms: _229  and  _230
REMARK  104  A    between atoms: _230  and  _231
REMARK  105  A    between atoms: _233  and  _235
REMARK  106  A    between atoms: _235  and  _236
REMARK  107  A    between atoms: _235  and  _238
REMARK  108  A    between atoms: _238  and  _239
REMARK  109  A    between atoms: _242  and  _244
REMARK  110  A    between atoms: _244  and  _245
REMARK  111  A    between atoms: _244  and  _247
REMARK  112  A    between atoms: _247  and  _248
REMARK  113  A    between atoms: _251  and  _253
REMARK  114  A    between atoms: _253  and  _254
REMARK  115  A    between atoms: _253  and  _256
REMARK  116  A    between atoms: _256  and  _257
REMARK  117  A    between atoms: _260  and  _262
REMARK  118  A    between atoms: _262  and  _263
REMARK  119  A    between atoms: _262  and  _265
REMARK  120  A    between atoms: _265  and  _266
REMARK  121  A    between atoms: _269  and  _271
REMARK  122  A    between atoms: _271  and  _272
REMARK  123  A    between atoms: _271  and  _274
REMARK  124  A    between atoms: _274  and  _275
REMARK  125  A    between atoms: _280  and  _282
REMARK  126  A    between atoms: _282  and  _283
REMARK  127  A    between atoms: _282  and  _285
REMARK  128  A    between atoms: _285  and  _286
REMARK  129  A    between atoms: _291  and  _293
REMARK  130  A    between atoms: _293  and  _294
REMARK  131  A    between atoms: _293  and  _296
REMARK  132  A    between atoms: _296  and  _297
REMARK  133  A    between atoms: _300  and  _302
REMARK  134  A    between atoms: _302  and  _303
REMARK  135  A    between atoms: _305  and  _307
REMARK  136  A    between atoms: _307  and  _308
REMARK  137  A    between atoms: _307  and  _310
REMARK  138  A    between atoms: _310  and  _311
REMARK  139  A    between atoms: _314  and  _316
REMARK  140  A    between atoms: _316  and  _317
REMARK  141  A    between atoms: _316  and  _319
REMARK  142  A    between atoms: _319  and  _320
REMARK  143  A    between atoms: _323  and  _325
REMARK  144  A    between atoms: _325  and  _326
REMARK  145  A    between atoms: _329  and  _331
REMARK  146  A    between atoms: _331  and  _332
REMARK  147  A    between atoms: _331  and  _334
REMARK  148  A    between atoms: _334  and  _335
REMARK  149  A    between atoms: _335  and  _336
REMARK  150  A    between atoms: _336  and  _337
REMARK  151  A    between atoms: _337  and  _338
REMARK  152  A    between atoms: _342  and  _344
REMARK  153  A    between atoms: _344  and  _345
REMARK  154  A    between atoms: _344  and  _347
REMARK  155  A    between atoms: _347  and  _348
REMARK  156  A    between atoms: _351  and  _353
REMARK  157  A    between atoms: _353  and  _354
REMARK  158  A    between atoms: _353  and  _356
REMARK  159  A    between atoms: _356  and  _357
REMARK  160  A    between atoms: _363  and  _365
REMARK  161  A    between atoms: _365  and  _366
REMARK  162  A    between atoms: _368  and  _370
REMARK  163  A    between atoms: _370  and  _371
REMARK  164  A    between atoms: _370  and  _373
REMARK  165  A    between atoms: _376  and  _378
REMARK  166  A    between atoms: _378  and  _379
REMARK  167  A    between atoms: _381  and  _383
REMARK  168  A    between atoms: _383  and  _384
REMARK  169  A    between atoms: _383  and  _386
REMARK  170  A    between atoms: _386  and  _387
REMARK  171  A    between atoms: _393  and  _395
REMARK  172  A    between atoms: _395  and  _396
REMARK  173  A    between atoms: _395  and  _398
REMARK  174  A    between atoms: _398  and  _399
REMARK  175  A    between atoms: _404  and  _405
REMARK  176  A    between atoms: _407  and  _409
REMARK  177  A    between atoms: _409  and  _410
REMARK  178  A    between atoms: _409  and  _412
REMARK  179  A    between atoms: _412  and  _413
REMARK  180  A    between atoms: _415  and  _417
REMARK  181  A    between atoms: _417  and  _418
REMARK  182  A    between atoms: _417  and  _420
REMARK  183  A    between atoms: _420  and  _421
REMARK  184  A    between atoms: _426  and  _427
REMARK  185  A    between atoms: _429  and  _431
REMARK  186  A    between atoms: _431  and  _432
REMARK  187  A    between atoms: _431  and  _434
REMARK  188  A    between atoms: _437  and  _439
REMARK  189  A    between atoms: _439  and  _440
REMARK  190  A    between atoms: _439  and  _442
REMARK  191  A    between atoms: _442  and  _443
REMARK  192  A    between atoms: _446  and  _448
REMARK  193  A    between atoms: _448  and  _449
REMARK  194  A    between atoms: _448  and  _451
REMARK  195  A    between atoms: _454  and  _456
REMARK  196  A    between atoms: _456  and  _457
REMARK  197  A    between atoms: _456  and  _459
REMARK  198  A    between atoms: _459  and  _460
REMARK  199  A    between atoms: _463  and  _465
REMARK  200  A    between atoms: _465  and  _466
REMARK  201  A    between atoms: _465  and  _468
REMARK  202  A    between atoms: _468  and  _469
REMARK  203  A    between atoms: _472  and  _474
REMARK  204  A    between atoms: _474  and  _475
REMARK  205  A    between atoms: _474  and  _477
REMARK  206  A    between atoms: _477  and  _478
REMARK  207  A    between atoms: _478  and  _479
REMARK  208  A    between atoms: _479  and  _480
REMARK  209  A    between atoms: _480  and  _481
REMARK  210  A    between atoms: _485  and  _487
REMARK  211  A    between atoms: _487  and  _488
REMARK  212  A    between atoms: _487  and  _490
REMARK  213  A    between atoms: _490  and  _491
REMARK  214  A    between atoms: _496  and  _498
REMARK  215  A    between atoms: _498  and  _499
REMARK  216  A    between atoms: _498  and  _501
REMARK  217  A    between atoms: _501  and  _502
REMARK  218  A    between atoms: _512  and  _514
REMARK  219  A    between atoms: _514  and  _515
REMARK  220  A    between atoms: _514  and  _517
REMARK  221  A    between atoms: _517  and  _518
REMARK  222  A    between atoms: _518  and  _519
REMARK  223  A    between atoms: _522  and  _524
REMARK  224  A    between atoms: _524  and  _525
REMARK  225  A    between atoms: _524  and  _527
REMARK  226  A    between atoms: _527  and  _528
REMARK  227  A    between atoms: _530  and  _532
REMARK  228  A    between atoms: _532  and  _533
REMARK  229  A    between atoms: _532  and  _535
REMARK  230  A    between atoms: _535  and  _536
REMARK  231  A    between atoms: _542  and  _544
REMARK  232  A    between atoms: _544  and  _545
REMARK  233  A    between atoms: _544  and  _547
REMARK  234  A    between atoms: _547  and  _548
REMARK  235  A    between atoms: _551  and  _553
REMARK  236  A    between atoms: _553  and  _554
REMARK  237  A    between atoms: _553  and  _556
REMARK  238  A    between atoms: _559  and  _561
REMARK  239  A    between atoms: _561  and  _562
REMARK  240  A    between atoms: _564  and  _566
REMARK  241  A    between atoms: _566  and  _567
REMARK  242  A    between atoms: _566  and  _569
REMARK  243  A    between atoms: _569  and  _570
REMARK  244  A    between atoms: _573  and  _575
REMARK  245  A    between atoms: _575  and  _576
REMARK  246  A    between atoms: _575  and  _578
REMARK  247  A    between atoms: _578  and  _579
REMARK  248  A    between atoms: _579  and  _580
REMARK  249  A    between atoms: _580  and  _581
REMARK  250  A    between atoms: _581  and  _582
REMARK  251  A    between atoms: _586  and  _588
REMARK  252  A    between atoms: _588  and  _589
REMARK  253  A    between atoms: _588  and  _591
REMARK                            x       y       z     vdW  Elec       q    Type
REMARK                         _______ _______ _______ _____ _____    ______ ____
ROOT
ATOM      1  CA  ILE A   1     -11.154 -12.246 -21.112  0.00  0.00    +0.133 C 
ENDROOT
BRANCH   1   2
ATOM      2  N   ILE A   1     -12.148 -11.335 -21.688  0.00  0.00    -0.239 NA
ATOM      3  H   ILE A   1     -12.920 -10.994 -21.080  0.00  0.00    +0.142 HD
ENDBRANCH   1   2
BRANCH   1   4
ATOM      4  CB  ILE A   1     -10.304 -11.525 -20.052  0.00  0.00    +0.023 C 
ATOM      5  CG2 ILE A   1      -9.347 -12.506 -19.351  0.00  0.00    +0.002 C 
BRANCH   4   6
ATOM      6  CG1 ILE A   1      -9.543 -10.347 -20.686  0.00  0.00    +0.002 C 
ATOM      7  CD1 ILE A   1      -8.876  -9.440 -19.666  0.00  0.00    +0.000 C 
ENDBRANCH   4   6
ENDBRANCH   1   4
BRANCH   1   8
ATOM      8  C   ILE A   1     -11.905 -13.411 -20.466  0.00  0.00    +0.224 C 
ATOM      9  O   ILE A   1     -12.871 -13.180 -19.729  0.00  0.00    -0.287 OA
ENDBRANCH   1   8
TORSDOF 4
REMARK  Name = ../refined-set-2016/3d0b/3d0b_pocket.pdb
REMARK  253 active torsions:
REMARK  status: ('A' for Active; 'I' for Inactive)
REMARK    1  A    between atoms: _1  and  _3
REMARK    2  A    between atoms: _3  and  _4
REMARK    3  A    between atoms: _3  and  _6
REMARK    4  A    between atoms: _6  and  _7
REMARK    5  A    between atoms: _13  and  _15
REMARK    6  A    between atoms: _15  and  _16
REMARK    7  A    between atoms: _15  and  _18
REMARK    8  A    between atoms: _18  and  _19
REMARK    9  A    between atoms: _19  and  _20
REMARK   10  A    between atoms: _25  and  _27
REMARK   11  A    between atoms: _27  and  _28
REMARK   12  A    between atoms: _27  and  _30
REMARK   13  A    between atoms: _30  and  _31
REMARK   14  A    between atoms: _34  and  _36
REMARK   15  A    between atoms: _36  and  _37
REMARK   16  A    between atoms: _36  and  _39
REMARK   17  A    between atoms: _39  and  _40
REMARK   18  A    between atoms: _40  and  _41
REMARK   19  A    between atoms: _43  and  _45
REMARK   20  A    between atoms: _45  and  _46
REMARK   21  A    between atoms: _45  and  _48
REMARK   22  A    between atoms: _48  and  _49
REMARK   23  A    between atoms: _49  and  _50
REMARK   24  A    between atoms: _53  and  _55
REMARK   25  A    between atoms: _55  and  _56
REMARK   26  A    between atoms: _55  and  _58
REMARK   27  A    between atoms: _58  and  _59
REMARK   28  A    between atoms: _62  and  _64
REMARK   29  A    between atoms: _64  and  _65
REMARK   30  A    between atoms: _64  and  _67
REMARK   31  A    between atoms: _67  and  _68
REMARK   32  A    between atoms: _71  and  _73
REMARK   33  A    between atoms: _73  and  _74
REMARK   34  A    between atoms: _73  and  _76
REMARK   35  A    between atoms: _76  and  _77
REMARK   36  A    between atoms: _79  and  _81
REMARK   37  A    between atoms: _81  and  _82
REMARK   38  A    between atoms: _81  and  _84
REMARK   39  A    between atoms: _84  and  _85
REMARK   40  A    between atoms: _90  and  _92
REMARK   41  A    between atoms: _92  and  _93
REMARK   42  A    between atoms: _92  and  _95
REMARK   43  A    between atoms: _95  and  _96
REMARK   44  A    between atoms: _98  and  _100
REMARK   45  A    between atoms: _100  and  _101
REMARK   46  A    between atoms: _100  and  _103
REMARK   47  A    between atoms: _103  and  _104
REMARK   48  A    between atoms: _106  and  _108
REMARK   49  A    between atoms: _108  and  _109
REMARK   50  A    between atoms: _108  and  _111
REMARK   51  A    between atoms: _111  and  _112
REMARK   52  A    between atoms: _115  and  _117
REMARK   53  A    between atoms: _117  and  _118
REMARK   54  A    between atoms: _121  and  _123
REMARK   55  A    between atoms: _123  and  _124
REMARK   56  A    between atoms: _123  and  _126
REMARK   57  A    between atoms: _126  and  _127
REMARK   58  A    between atoms: _130  and  _132
REMARK   59  A    between atoms: _132  and  _133
REMARK   60  A    between atoms: _132  and  _135
REMARK   61  A    between atoms: _135  and  _136
REMARK   62  A    between atoms: _139  and  _141
REMARK   63  A    between atoms: _141  and  _142
REMARK   64  A    between atoms: _141  and  _144
REMARK   65  A    between atoms: _144  and  _145
REMARK   66  A    between atoms: _145  and  _146
REMARK   67  A    between atoms: _146  and  _147
REMARK   68  A    between atoms: _147  and  _148
REMARK   69  A    between atoms: _152  and  _154
REMARK   70  A    between atoms: _154  and  _155
REMARK   71  A    between atoms: _154  and  _157
REMARK   72  A    between atoms: _157  and  _158
REMARK   73  A    between atoms: _161  and  _163
REMARK   74  A    between atoms: _163  and  _164
REMARK   75  A    between atoms: _163  and  _166
REMARK   76  A    between atoms: _166  and  _167
REMARK   77  A    between atoms: _170  and  _172
REMARK   78  A    between atoms: _172  and  _173
REMARK   79  A    between atoms: _172  and  _175
REMARK   80  A    between atoms: _175  and  _176
REMARK   81  A    between atoms: _179  and  _181
REMARK   82  A    between atoms: _181  and  _182
REMARK   83  A    between atoms: _181  and  _184
REMARK   84  A    between atoms: _187  and  _189
REMARK   85  A    between atoms: _189  and  _190
REMARK   86  A    between atoms: _189  and  _192
REMARK   87  A    between atoms: _192  and  _193
REMARK   88  A    between atoms: _196  and  _198
REMARK   89  A    between atoms: _198  and  _199
REMARK   90  A    between atoms: _198  and  _201
REMARK   91  A    between atoms: _201  and  _202
REMARK   92  A    between atoms: _205  and  _207
REMARK   93  A    between atoms: _207  and  _208
REMARK   94  A    between atoms: _210  and  _212
REMARK   95  A    between atoms: _212  and  _213
REMARK   96  A    between atoms: _212  and  _215
REMARK   97  A    between atoms: _215  and  _216
REMARK   98  A    between atoms: _219  and  _221
REMARK   99  A    between atoms: _221  and  _222
REMARK  100  A    between atoms: _224  and  _226
REMARK  101  A    between atoms: _226  and  _227
REMARK  102  A    between atoms: _226  and  _229
REMARK  103  A    between atoms: _229  and  _230
REMARK  104  A    between atoms: _230  and  _231
REMARK  105  A    between atoms: _233  and  _235
REMARK  106  A    between atoms: _235  and  _236
REMARK  107  A    between atoms: _235  and  _238
REMARK  108  A    between atoms: _238  and  _239
REMARK  109  A    between atoms: _242  and  _244
REMARK  110  A    between atoms: _244  and  _245
REMARK  111  A    between atoms: _244  and  _247
REMARK  112  A    between atoms: _247  and  _248
REMARK  113  A    between atoms: _251  and  _253
REMARK  114  A    between atoms: _253  and  _254
REMARK  115  A    between atoms: _253  and  _256
REMARK  116  A    between atoms: _256  and  _257
REMARK  117  A    between atoms: _260  and  _262
REMARK  118  A    between atoms: _262  and  _263
REMARK  119  A    between atoms: _262  and  _265
REMARK  120  A    between atoms: _265  and  _266
REMARK  121  A    between atoms: _269  and  _271
REMARK  122  A    between atoms: _271  and  _272
REMARK  123  A    between atoms: _271  and  _274
REMARK  124  A    between atoms: _274  and  _275
REMARK  125  A    between atoms: _280  and  _282
REMARK  126  A    between atoms: _282  and  _283
REMARK  127  A    between atoms: _282  and  _285
REMARK  128  A    between atoms: _285  and  _286
REMARK  129  A    between atoms: _291  and  _293
REMARK  130  A    between atoms: _293  and  _294
REMARK  131  A    between atoms: _293  and  _296
REMARK  132  A    between atoms: _296  and  _297
REMARK  133  A    between atoms: _300  and  _302
REMARK  134  A    between atoms: _302  and  _303
REMARK  135  A    between atoms: _305  and  _307
REMARK  136  A    between atoms: _307  and  _308
REMARK  137  A    between atoms: _307  and  _310
REMARK  138  A    between atoms: _310  and  _311
REMARK  139  A    between atoms: _314  and  _316
REMARK  140  A    between atoms: _316  and  _317
REMARK  141  A    between atoms: _316  and  _319
REMARK  142  A    between atoms: _319  and  _320
REMARK  143  A    between atoms: _323  and  _325
REMARK  144  A    between atoms: _325  and  _326
REMARK  145  A    between atoms: _329  and  _331
REMARK  146  A    between atoms: _331  and  _332
REMARK  147  A    between atoms: _331  and  _334
REMARK  148  A    between atoms: _334  and  _335
REMARK  149  A    between atoms: _335  and  _336
REMARK  150  A    between atoms: _336  and  _337
REMARK  151  A    between atoms: _337  and  _338
REMARK  152  A    between atoms: _342  and  _344
REMARK  153  A    between atoms: _344  and  _345
REMARK  154  A    between atoms: _344  and  _347
REMARK  155  A    between atoms: _347  and  _348
REMARK  156  A    between atoms: _351  and  _353
REMARK  157  A    between atoms: _353  and  _354
REMARK  158  A    between atoms: _353  and  _356
REMARK  159  A    between atoms: _356  and  _357
REMARK  160  A    between atoms: _363  and  _365
REMARK  161  A    between atoms: _365  and  _366
REMARK  162  A    between atoms: _368  and  _370
REMARK  163  A    between atoms: _370  and  _371
REMARK  164  A    between atoms: _370  and  _373
REMARK  165  A    between atoms: _376  and  _378
REMARK  166  A    between atoms: _378  and  _379
REMARK  167  A    between atoms: _381  and  _383
REMARK  168  A    between atoms: _383  and  _384
REMARK  169  A    between atoms: _383  and  _386
REMARK  170  A    between atoms: _386  and  _387
REMARK  171  A    between atoms: _393  and  _395
REMARK  172  A    between atoms: _395  and  _396
REMARK  173  A    between atoms: _395  and  _398
REMARK  174  A    between atoms: _398  and  _399
REMARK  175  A    between atoms: _404  and  _405
REMARK  176  A    between atoms: _407  and  _409
REMARK  177  A    between atoms: _409  and  _410
REMARK  178  A    between atoms: _409  and  _412
REMARK  179  A    between atoms: _412  and  _413
REMARK  180  A    between atoms: _415  and  _417
REMARK  181  A    between atoms: _417  and  _418
REMARK  182  A    between atoms: _417  and  _420
REMARK  183  A    between atoms: _420  and  _421
REMARK  184  A    between atoms: _426  and  _427
REMARK  185  A    between atoms: _429  and  _431
REMARK  186  A    between atoms: _431  and  _432
REMARK  187  A    between atoms: _431  and  _434
REMARK  188  A    between atoms: _437  and  _439
REMARK  189  A    between atoms: _439  and  _440
REMARK  190  A    between atoms: _439  and  _442
REMARK  191  A    between atoms: _442  and  _443
REMARK  192  A    between atoms: _446  and  _448
REMARK  193  A    between atoms: _448  and  _449
REMARK  194  A    between atoms: _448  and  _451
REMARK  195  A    between atoms: _454  and  _456
REMARK  196  A    between atoms: _456  and  _457
REMARK  197  A    between atoms: _456  and  _459
REMARK  198  A    between atoms: _459  and  _460
REMARK  199  A    between atoms: _463  and  _465
REMARK  200  A    between atoms: _465  and  _466
REMARK  201  A    between atoms: _465  and  _468
REMARK  202  A    between atoms: _468  and  _469
REMARK  203  A    between atoms: _472  and  _474
REMARK  204  A    between atoms: _474  and  _475
REMARK  205  A    between atoms: _474  and  _477
REMARK  206  A    between atoms: _477  and  _478
REMARK  207  A    between atoms: _478  and  _479
REMARK  208  A    between atoms: _479  and  _480
REMARK  209  A    between atoms: _480  and  _481
REMARK  210  A    between atoms: _485  and  _487
REMARK  211  A    between atoms: _487  and  _488
REMARK  212  A    between atoms: _487  and  _490
REMARK  213  A    between atoms: _490  and  _491
REMARK  214  A    between atoms: _496  and  _498
REMARK  215  A    between atoms: _498  and  _499
REMARK  216  A    between atoms: _498  and  _501
REMARK  217  A    between atoms: _501  and  _502
REMARK  218  A    between atoms: _512  and  _514
REMARK  219  A    between atoms: _514  and  _515
REMARK  220  A    between atoms: _514  and  _517
REMARK  221  A    between atoms: _517  and  _518
REMARK  222  A    between atoms: _518  and  _519
REMARK  223  A    between atoms: _522  and  _524
REMARK  224  A    between atoms: _524  and  _525
REMARK  225  A    between atoms: _524  and  _527
REMARK  226  A    between atoms: _527  and  _528
REMARK  227  A    between atoms: _530  and  _532
REMARK  228  A    between atoms: _532  and  _533
REMARK  229  A    between atoms: _532  and  _535
REMARK  230  A    between atoms: _535  and  _536
REMARK  231  A    between atoms: _542  and  _544
REMARK  232  A    between atoms: _544  and  _545
REMARK  233  A    between atoms: _544  and  _547
REMARK  234  A    between atoms: _547  and  _548
REMARK  235  A    between atoms: _551  and  _553
REMARK  236  A    between atoms: _553  and  _554
REMARK  237  A    between atoms: _553  and  _556
REMARK  238  A    between atoms: _559  and  _561
REMARK  239  A    between atoms: _561  and  _562
REMARK  240  A    between atoms: _564  and  _566
REMARK  241  A    between atoms: _566  and  _567
REMARK  242  A    between atoms: _566  and  _569
REMARK  243  A    between atoms: _569  and  _570
REMARK  244  A    between atoms: _573  and  _575
REMARK  245  A    between atoms: _575  and  _576
REMARK  246  A    between atoms: _575  and  _578
REMARK  247  A    between atoms: _578  and  _579
REMARK  248  A    between atoms: _579  and  _580
REMARK  249  A    between atoms: _580  and  _581
REMARK  250  A    between atoms: _581  and  _582
REMARK  251  A    between atoms: _586  and  _588
REMARK  252  A    between atoms: _588  and  _589
REMARK  253  A    between atoms: _588  and  _591
REMARK                            x       y       z     vdW  Elec       q    Type
REMARK                         _______ _______ _______ _____ _____    ______ ____
ROOT
ATOM      1  C   THR A   4      -9.071 -10.375 -28.319  0.00  0.00    +0.243 C 
ATOM      2  N   GLY A   5      -7.869 -10.216 -27.764  0.00  0.00    -0.295 N 
ATOM      3  H   GLY A   5      -7.528 -10.924 -27.083  0.00  0.00    +0.150 HD
ATOM      4  O   THR A   4      -9.568  -9.543 -29.081  0.00  0.00    -0.273 OA
ENDROOT
BRANCH   2   5
ATOM      5  CA  GLY A   5      -7.016  -9.069 -28.088  0.00  0.00    +0.176 C 
BRANCH   5   6
ATOM      6  C   GLY A   5      -6.385  -9.146 -29.473  0.00  0.00    +0.243 C 
ATOM      7  N   ILE A   6      -5.392  -8.285 -29.691  0.00  0.00    -0.297 N 
ATOM      8  H   ILE A   6      -5.081  -7.678 -28.906  0.00  0.00    +0.150 HD
ATOM      9  O   GLY A   5      -6.778  -9.962 -30.317  0.00  0.00    -0.273 OA
BRANCH   7  10
ATOM     10  CA  ILE A   6      -4.720  -8.154 -30.980  0.00  0.00    +0.149 C 
BRANCH  10  11
ATOM     11  C   ILE A   6      -3.985  -9.428 -31.435  0.00  0.00    +0.241 C 
ATOM     12  N   GLY A   7      -3.570 -10.253 -30.480  0.00  0.00    -0.295 N 
ATOM     13  H   GLY A   7      -3.779 -10.030 -29.486  0.00  0.00    +0.150 HD
ATOM     14  O   ILE A   6      -3.781  -9.643 -32.628  0.00  0.00    -0.273 OA
BRANCH  12  15
ATOM     15  CA  GLY A   7      -2.823 -11.472 -30.804  0.00  0.00    +0.176 C 
BRANCH  15  16
ATOM     16  C   GLY A   7      -1.391 -11.133 -31.188  0.00  0.00    +0.243 C 
ATOM     17  O   GLY A   7      -0.991  -9.968 -31.162  0.00  0.00    -0.273 OA
ATOM     18  N   MET A   8      -0.630 -12.156 -31.572  0.00  0.00    -0.297 N 
ATOM     19  H   MET A   8      -1.065 -13.095 -31.670  0.00  0.00    +0.150 HD
BRANCH  18  20
ATOM     20  CA  MET A   8       0.793 -12.006 -31.860  0.00  0.00    +0.149 C 
BRANCH  20  21
ATOM     21  C   MET A   8       1.172 -12.724 -33.150  0.00  0.00    +0.241 C 
ATOM     22  O   MET A   8       0.707 -13.829 -33.401  0.00  0.00    -0.273 OA
ATOM     23  N   THR A   9       2.019 -12.080 -33.946  0.00  0.00    -0.296 N 
ATOM     24  H   THR A   9       2.332 -11.127 -33.672  0.00  0.00    +0.150 HD
BRANCH  23  25
ATOM     25  CA  THR A   9       2.529 -12.652 -35.187  0.00  0.00    +0.164 C 
BRANCH  25  26
ATOM     26  CB  THR A   9       3.074 -11.561 -36.125  0.00  0.00    +0.136 C 
ATOM     27  CG2 THR A   9       1.981 -10.572 -36.508  0.00  0.00    +0.034 C 
BRANCH  26  28
ATOM     28  OG1 THR A   9       4.149 -10.872 -35.470  0.00  0.00    -0.382 OA
ATOM     29  HG1 THR A   9       4.503 -10.169 -36.070  0.00  0.00    +0.210 HD
ENDBRANCH  26  28
ENDBRANCH  25  26
BRANCH  25  30
ATOM     30  C   THR A   9       3.688 -13.596 -34.868  0.00  0.00    +0.229 C 
ATOM     31  O   THR A   9       4.197 -13.623 -33.743  0.00  0.00    -0.286 OA
ENDBRANCH  25  30
ENDBRANCH  23  25
ENDBRANCH  20  21
BRANCH  20  32
ATOM     32  CB  MET A   8       1.626 -12.567 -30.707  0.00  0.00    +0.041 C 
BRANCH  32  33
ATOM     33  CG  MET A   8       1.616 -11.707 -29.438  0.00  0.00    +0.060 C 
BRANCH  33  34
ATOM     34  SD  MET A   8       2.214 -12.609 -27.998  0.00  0.00    -0.139 S 
ATOM     35  CE  MET A   8       0.740 -13.543 -27.558  0.00  0.00    +0.069 C 
ENDBRANCH  33  34
ENDBRANCH  32  33
ENDBRANCH  20  32
ENDBRANCH  18  20
ENDBRANCH  15  16
ENDBRANCH  12  15
ENDBRANCH  10  11
BRANCH  10  36
ATOM     36  CB  ILE A   6      -3.732  -6.965 -30.977  0.00  0.00    +0.027 C 
ATOM     37  CG2 ILE A   6      -2.569  -7.223 -29.995  0.00  0.00    +0.002 C 
BRANCH  36  38
ATOM     38  CG1 ILE A   6      -3.261  -6.675 -32.413  0.00  0.00    +0.002 C 
ATOM     39  CD1 ILE A   6      -2.908  -5.222 -32.682  0.00  0.00    +0.000 C 
ENDBRANCH  36  38
ENDBRANCH  10  36
ENDBRANCH   7  10
ENDBRANCH   5   6
ENDBRANCH   2   5
BRANCH   1  40
ATOM     40  CA  THR A   4      -9.803 -11.674 -27.952  0.00  0.00    +0.176 C 
BRANCH  40  42
ATOM     41  C   ASP A   3      -8.729 -12.933 -26.162  0.00  0.00    +0.241 C 
ATOM     42  N   THR A   4      -9.532 -11.948 -26.546  0.00  0.00    -0.295 N 
ATOM     43  H   THR A   4      -9.982 -11.353 -25.821  0.00  0.00    +0.150 HD
ATOM     44  O   ASP A   3      -8.195 -13.737 -26.946  0.00  0.00    -0.273 OA
BRANCH  41  45
ATOM     45  CA  ASP A   3      -8.501 -13.028 -24.656  0.00  0.00    +0.160 C 
BRANCH  45  48
ATOM     46  C   VAL A   2      -8.488 -14.981 -23.221  0.00  0.00    +0.241 C 
ATOM     47  O   VAL A   2      -9.255 -14.452 -22.402  0.00  0.00    -0.273 OA
ATOM     48  N   ASP A   3      -8.003 -14.345 -24.285  0.00  0.00    -0.297 N 
ATOM     49  H   ASP A   3      -7.260 -14.794 -24.858  0.00  0.00    +0.150 HD
BRANCH  46  50
ATOM     50  CA  VAL A   2      -8.057 -16.428 -23.033  0.00  0.00    +0.148 C 
BRANCH  50  52
ATOM     51  C   ILE A   1      -6.473 -16.881 -21.245  0.00  0.00    +0.238 C 
ATOM     52  N   VAL A   2      -7.717 -16.627 -21.626  0.00  0.00    -0.297 N 
ATOM     53  H   VAL A   2      -8.467 -16.568 -20.908  0.00  0.00    +0.150 HD
ATOM     54  O   ILE A   1      -5.532 -16.924 -22.031  0.00  0.00    -0.274 OA
BRANCH  51  55
ATOM     55  CA  ILE A   1      -6.261 -17.183 -19.759  0.00  0.00    +0.145 C 
BRANCH  55  56
ATOM     56  N   ILE A   1      -5.823 -18.582 -19.690  0.00  0.00    -0.238 NA
ATOM     57  H   ILE A   1      -4.864 -18.819 -20.016  0.00  0.00    +0.142 HD
ENDBRANCH  55  56
BRANCH  55  58
ATOM     58  CB  ILE A   1      -5.211 -16.196 -19.174  0.00  0.00    +0.025 C 
ATOM     59  CG2 ILE A   1      -5.618 -14.744 -19.447  0.00  0.00    +0.002 C 
BRANCH  58  60
ATOM     60  CG1 ILE A   1      -4.998 -16.423 -17.670  0.00  0.00    +0.002 C 
ATOM     61  CD1 ILE A   1      -3.963 -17.494 -17.334  0.00  0.00    +0.000 C 
ENDBRANCH  58  60
ENDBRANCH  55  58
ENDBRANCH  51  55
ENDBRANCH  50  52
BRANCH  50  62
ATOM     62  CB  VAL A   2      -9.232 -17.339 -23.468  0.00  0.00    +0.027 C 
ATOM     63  CG2 VAL A   2      -8.937 -18.803 -23.162  0.00  0.00    +0.002 C 
ATOM     64  CG1 VAL A   2      -9.535 -17.170 -24.959  0.00  0.00    +0.002 C 
ENDBRANCH  50  62
ENDBRANCH  46  50
ENDBRANCH  45  48
BRANCH  45  65
ATOM     65  CB  ASP A   3      -7.564 -11.922 -24.166  0.00  0.00    +0.143 C 
BRANCH  65  66
ATOM     66  CG  ASP A   3      -6.223 -11.923 -24.891  0.00  0.00    +0.367 C 
ATOM     67  OD2 ASP A   3      -5.193 -12.227 -24.243  0.00  0.00    -0.246 OA
ATOM     68  OD1 ASP A   3      -6.208 -11.617 -26.108  0.00  0.00    -0.246 OA
ENDBRANCH  65  66
ENDBRANCH  45  65
ENDBRANCH  41  45
ENDBRANCH  40  42
BRANCH  40  69
ATOM     69  CB  THR A   4     -11.325 -11.588 -28.225  0.00  0.00    +0.137 C 
ATOM     70  CG2 THR A   4     -11.991 -12.990 -28.094  0.00  0.00    +0.034 C 
BRANCH  69  71
ATOM     71  OG1 THR A   4     -11.931 -10.688 -27.290  0.00  0.00    -0.382 OA
ATOM     72  HG1 THR A   4     -12.904 -10.635 -27.467  0.00  0.00    +0.210 HD
ENDBRANCH  69  71
ENDBRANCH  40  69
ENDBRANCH   1  40
TORSDOF 32
REMARK  Name = ../refined-set-2016/3d0b/3d0b_pocket.pdb
REMARK  253 active torsions:
REMARK  status: ('A' for Active; 'I' for Inactive)
REMARK    1  A    between atoms: _1  and  _3
REMARK    2  A    between atoms: _3  and  _4
REMARK    3  A    between atoms: _3  and  _6
REMARK    4  A    between atoms: _6  and  _7
REMARK    5  A    between atoms: _13  and  _15
REMARK    6  A    between atoms: _15  and  _16
REMARK    7  A    between atoms: _15  and  _18
REMARK    8  A    between atoms: _18  and  _19
REMARK    9  A    between atoms: _19  and  _20
REMARK   10  A    between atoms: _25  and  _27
REMARK   11  A    between atoms: _27  and  _28
REMARK   12  A    between atoms: _27  and  _30
REMARK   13  A    between atoms: _30  and  _31
REMARK   14  A    between atoms: _34  and  _36
REMARK   15  A    between atoms: _36  and  _37
REMARK   16  A    between atoms: _36  and  _39
REMARK   17  A    between atoms: _39  and  _40
REMARK   18  A    between atoms: _40  and  _41
REMARK   19  A    between atoms: _43  and  _45
REMARK   20  A    between atoms: _45  and  _46
REMARK   21  A    between atoms: _45  and  _48
REMARK   22  A    between atoms: _48  and  _49
REMARK   23  A    between atoms: _49  and  _50
REMARK   24  A    between atoms: _53  and  _55
REMARK   25  A    between atoms: _55  and  _56
REMARK   26  A    between atoms: _55  and  _58
REMARK   27  A    between atoms: _58  and  _59
REMARK   28  A    between atoms: _62  and  _64
REMARK   29  A    between atoms: _64  and  _65
REMARK   30  A    between atoms: _64  and  _67
REMARK   31  A    between atoms: _67  and  _68
REMARK   32  A    between atoms: _71  and  _73
REMARK   33  A    between atoms: _73  and  _74
REMARK   34  A    between atoms: _73  and  _76
REMARK   35  A    between atoms: _76  and  _77
REMARK   36  A    between atoms: _79  and  _81
REMARK   37  A    between atoms: _81  and  _82
REMARK   38  A    between atoms: _81  and  _84
REMARK   39  A    between atoms: _84  and  _85
REMARK   40  A    between atoms: _90  and  _92
REMARK   41  A    between atoms: _92  and  _93
REMARK   42  A    between atoms: _92  and  _95
REMARK   43  A    between atoms: _95  and  _96
REMARK   44  A    between atoms: _98  and  _100
REMARK   45  A    between atoms: _100  and  _101
REMARK   46  A    between atoms: _100  and  _103
REMARK   47  A    between atoms: _103  and  _104
REMARK   48  A    between atoms: _106  and  _108
REMARK   49  A    between atoms: _108  and  _109
REMARK   50  A    between atoms: _108  and  _111
REMARK   51  A    between atoms: _111  and  _112
REMARK   52  A    between atoms: _115  and  _117
REMARK   53  A    between atoms: _117  and  _118
REMARK   54  A    between atoms: _121  and  _123
REMARK   55  A    between atoms: _123  and  _124
REMARK   56  A    between atoms: _123  and  _126
REMARK   57  A    between atoms: _126  and  _127
REMARK   58  A    between atoms: _130  and  _132
REMARK   59  A    between atoms: _132  and  _133
REMARK   60  A    between atoms: _132  and  _135
REMARK   61  A    between atoms: _135  and  _136
REMARK   62  A    between atoms: _139  and  _141
REMARK   63  A    between atoms: _141  and  _142
REMARK   64  A    between atoms: _141  and  _144
REMARK   65  A    between atoms: _144  and  _145
REMARK   66  A    between atoms: _145  and  _146
REMARK   67  A    between atoms: _146  and  _147
REMARK   68  A    between atoms: _147  and  _148
REMARK   69  A    between atoms: _152  and  _154
REMARK   70  A    between atoms: _154  and  _155
REMARK   71  A    between atoms: _154  and  _157
REMARK   72  A    between atoms: _157  and  _158
REMARK   73  A    between atoms: _161  and  _163
REMARK   74  A    between atoms: _163  and  _164
REMARK   75  A    between atoms: _163  and  _166
REMARK   76  A    between atoms: _166  and  _167
REMARK   77  A    between atoms: _170  and  _172
REMARK   78  A    between atoms: _172  and  _173
REMARK   79  A    between atoms: _172  and  _175
REMARK   80  A    between atoms: _175  and  _176
REMARK   81  A    between atoms: _179  and  _181
REMARK   82  A    between atoms: _181  and  _182
REMARK   83  A    between atoms: _181  and  _184
REMARK   84  A    between atoms: _187  and  _189
REMARK   85  A    between atoms: _189  and  _190
REMARK   86  A    between atoms: _189  and  _192
REMARK   87  A    between atoms: _192  and  _193
REMARK   88  A    between atoms: _196  and  _198
REMARK   89  A    between atoms: _198  and  _199
REMARK   90  A    between atoms: _198  and  _201
REMARK   91  A    between atoms: _201  and  _202
REMARK   92  A    between atoms: _205  and  _207
REMARK   93  A    between atoms: _207  and  _208
REMARK   94  A    between atoms: _210  and  _212
REMARK   95  A    between atoms: _212  and  _213
REMARK   96  A    between atoms: _212  and  _215
REMARK   97  A    between atoms: _215  and  _216
REMARK   98  A    between atoms: _219  and  _221
REMARK   99  A    between atoms: _221  and  _222
REMARK  100  A    between atoms: _224  and  _226
REMARK  101  A    between atoms: _226  and  _227
REMARK  102  A    between atoms: _226  and  _229
REMARK  103  A    between atoms: _229  and  _230
REMARK  104  A    between atoms: _230  and  _231
REMARK  105  A    between atoms: _233  and  _235
REMARK  106  A    between atoms: _235  and  _236
REMARK  107  A    between atoms: _235  and  _238
REMARK  108  A    between atoms: _238  and  _239
REMARK  109  A    between atoms: _242  and  _244
REMARK  110  A    between atoms: _244  and  _245
REMARK  111  A    between atoms: _244  and  _247
REMARK  112  A    between atoms: _247  and  _248
REMARK  113  A    between atoms: _251  and  _253
REMARK  114  A    between atoms: _253  and  _254
REMARK  115  A    between atoms: _253  and  _256
REMARK  116  A    between atoms: _256  and  _257
REMARK  117  A    between atoms: _260  and  _262
REMARK  118  A    between atoms: _262  and  _263
REMARK  119  A    between atoms: _262  and  _265
REMARK  120  A    between atoms: _265  and  _266
REMARK  121  A    between atoms: _269  and  _271
REMARK  122  A    between atoms: _271  and  _272
REMARK  123  A    between atoms: _271  and  _274
REMARK  124  A    between atoms: _274  and  _275
REMARK  125  A    between atoms: _280  and  _282
REMARK  126  A    between atoms: _282  and  _283
REMARK  127  A    between atoms: _282  and  _285
REMARK  128  A    between atoms: _285  and  _286
REMARK  129  A    between atoms: _291  and  _293
REMARK  130  A    between atoms: _293  and  _294
REMARK  131  A    between atoms: _293  and  _296
REMARK  132  A    between atoms: _296  and  _297
REMARK  133  A    between atoms: _300  and  _302
REMARK  134  A    between atoms: _302  and  _303
REMARK  135  A    between atoms: _305  and  _307
REMARK  136  A    between atoms: _307  and  _308
REMARK  137  A    between atoms: _307  and  _310
REMARK  138  A    between atoms: _310  and  _311
REMARK  139  A    between atoms: _314  and  _316
REMARK  140  A    between atoms: _316  and  _317
REMARK  141  A    between atoms: _316  and  _319
REMARK  142  A    between atoms: _319  and  _320
REMARK  143  A    between atoms: _323  and  _325
REMARK  144  A    between atoms: _325  and  _326
REMARK  145  A    between atoms: _329  and  _331
REMARK  146  A    between atoms: _331  and  _332
REMARK  147  A    between atoms: _331  and  _334
REMARK  148  A    between atoms: _334  and  _335
REMARK  149  A    between atoms: _335  and  _336
REMARK  150  A    between atoms: _336  and  _337
REMARK  151  A    between atoms: _337  and  _338
REMARK  152  A    between atoms: _342  and  _344
REMARK  153  A    between atoms: _344  and  _345
REMARK  154  A    between atoms: _344  and  _347
REMARK  155  A    between atoms: _347  and  _348
REMARK  156  A    between atoms: _351  and  _353
REMARK  157  A    between atoms: _353  and  _354
REMARK  158  A    between atoms: _353  and  _356
REMARK  159  A    between atoms: _356  and  _357
REMARK  160  A    between atoms: _363  and  _365
REMARK  161  A    between atoms: _365  and  _366
REMARK  162  A    between atoms: _368  and  _370
REMARK  163  A    between atoms: _370  and  _371
REMARK  164  A    between atoms: _370  and  _373
REMARK  165  A    between atoms: _376  and  _378
REMARK  166  A    between atoms: _378  and  _379
REMARK  167  A    between atoms: _381  and  _383
REMARK  168  A    between atoms: _383  and  _384
REMARK  169  A    between atoms: _383  and  _386
REMARK  170  A    between atoms: _386  and  _387
REMARK  171  A    between atoms: _393  and  _395
REMARK  172  A    between atoms: _395  and  _396
REMARK  173  A    between atoms: _395  and  _398
REMARK  174  A    between atoms: _398  and  _399
REMARK  175  A    between atoms: _404  and  _405
REMARK  176  A    between atoms: _407  and  _409
REMARK  177  A    between atoms: _409  and  _410
REMARK  178  A    between atoms: _409  and  _412
REMARK  179  A    between atoms: _412  and  _413
REMARK  180  A    between atoms: _415  and  _417
REMARK  181  A    between atoms: _417  and  _418
REMARK  182  A    between atoms: _417  and  _420
REMARK  183  A    between atoms: _420  and  _421
REMARK  184  A    between atoms: _426  and  _427
REMARK  185  A    between atoms: _429  and  _431
REMARK  186  A    between atoms: _431  and  _432
REMARK  187  A    between atoms: _431  and  _434
REMARK  188  A    between atoms: _437  and  _439
REMARK  189  A    between atoms: _439  and  _440
REMARK  190  A    between atoms: _439  and  _442
REMARK  191  A    between atoms: _442  and  _443
REMARK  192  A    between atoms: _446  and  _448
REMARK  193  A    between atoms: _448  and  _449
REMARK  194  A    between atoms: _448  and  _451
REMARK  195  A    between atoms: _454  and  _456
REMARK  196  A    between atoms: _456  and  _457
REMARK  197  A    between atoms: _456  and  _459
REMARK  198  A    between atoms: _459  and  _460
REMARK  199  A    between atoms: _463  and  _465
REMARK  200  A    between atoms: _465  and  _466
REMARK  201  A    between atoms: _465  and  _468
REMARK  202  A    between atoms: _468  and  _469
REMARK  203  A    between atoms: _472  and  _474
REMARK  204  A    between atoms: _474  and  _475
REMARK  205  A    between atoms: _474  and  _477
REMARK  206  A    between atoms: _477  and  _478
REMARK  207  A    between atoms: _478  and  _479
REMARK  208  A    between atoms: _479  and  _480
REMARK  209  A    between atoms: _480  and  _481
REMARK  210  A    between atoms: _485  and  _487
REMARK  211  A    between atoms: _487  and  _488
REMARK  212  A    between atoms: _487  and  _490
REMARK  213  A    between atoms: _490  and  _491
REMARK  214  A    between atoms: _496  and  _498
REMARK  215  A    between atoms: _498  and  _499
REMARK  216  A    between atoms: _498  and  _501
REMARK  217  A    between atoms: _501  and  _502
REMARK  218  A    between atoms: _512  and  _514
REMARK  219  A    between atoms: _514  and  _515
REMARK  220  A    between atoms: _514  and  _517
REMARK  221  A    between atoms: _517  and  _518
REMARK  222  A    between atoms: _518  and  _519
REMARK  223  A    between atoms: _522  and  _524
REMARK  224  A    between atoms: _524  and  _525
REMARK  225  A    between atoms: _524  and  _527
REMARK  226  A    between atoms: _527  and  _528
REMARK  227  A    between atoms: _530  and  _532
REMARK  228  A    between atoms: _532  and  _533
REMARK  229  A    between atoms: _532  and  _535
REMARK  230  A    between atoms: _535  and  _536
REMARK  231  A    between atoms: _542  and  _544
REMARK  232  A    between atoms: _544  and  _545
REMARK  233  A    between atoms: _544  and  _547
REMARK  234  A    between atoms: _547  and  _548
REMARK  235  A    between atoms: _551  and  _553
REMARK  236  A    between atoms: _553  and  _554
REMARK  237  A    between atoms: _553  and  _556
REMARK  238  A    between atoms: _559  and  _561
REMARK  239  A    between atoms: _561  and  _562
REMARK  240  A    between atoms: _564  and  _566
REMARK  241  A    between atoms: _566  and  _567
REMARK  242  A    between atoms: _566  and  _569
REMARK  243  A    between atoms: _569  and  _570
REMARK  244  A    between atoms: _573  and  _575
REMARK  245  A    between atoms: _575  and  _576
REMARK  246  A    between atoms: _575  and  _578
REMARK  247  A    between atoms: _578  and  _579
REMARK  248  A    between atoms: _579  and  _580
REMARK  249  A    between atoms: _580  and  _581
REMARK  250  A    between atoms: _581  and  _582
REMARK  251  A    between atoms: _586  and  _588
REMARK  252  A    between atoms: _588  and  _589
REMARK  253  A    between atoms: _588  and  _591
REMARK                            x       y       z     vdW  Elec       q    Type
REMARK                         _______ _______ _______ _____ _____    ______ ____
ROOT
ATOM      1  C   ASN A   5       9.794  -8.561 -29.681  0.00  0.00    +0.241 C 
ATOM      2  O   ASN A   5      10.350  -7.682 -29.026  0.00  0.00    -0.273 OA
ATOM      3  N   LEU A   6       9.020  -9.498 -29.139  0.00  0.00    -0.297 N 
ATOM      4  H   LEU A   6       8.586 -10.220 -29.749  0.00  0.00    +0.150 HD
ENDROOT
BRANCH   1   5
ATOM      5  CA  ASN A   5       9.953  -8.616 -31.186  0.00  0.00    +0.158 C 
BRANCH   5   8
ATOM      6  C   ASN A   4      11.501 -10.493 -31.386  0.00  0.00    +0.241 C 
ATOM      7  O   ASN A   4      12.213 -10.087 -30.460  0.00  0.00    -0.273 OA
ATOM      8  N   ASN A   5      10.329  -9.941 -31.699  0.00  0.00    -0.297 N 
ATOM      9  H   ASN A   5       9.670 -10.456 -32.316  0.00  0.00    +0.150 HD
BRANCH   6  10
ATOM     10  CA  ASN A   4      11.945 -11.695 -32.226  0.00  0.00    +0.158 C 
BRANCH  10  13
ATOM     11  C   ILE A   3      11.321 -14.006 -31.808  0.00  0.00    +0.241 C 
ATOM     12  O   ILE A   3      12.336 -14.205 -31.134  0.00  0.00    -0.273 OA
ATOM     13  N   ASN A   4      11.000 -12.810 -32.298  0.00  0.00    -0.297 N 
ATOM     14  H   ASN A   4      10.068 -12.667 -32.736  0.00  0.00    +0.150 HD
BRANCH  11  15
ATOM     15  CA  ILE A   3      10.371 -15.158 -32.117  0.00  0.00    +0.149 C 
BRANCH  15  18
ATOM     16  C   LEU A   2       8.342 -14.892 -30.825  0.00  0.00    +0.241 C 
ATOM     17  O   LEU A   2       8.910 -15.235 -29.798  0.00  0.00    -0.273 OA
ATOM     18  N   ILE A   3       8.969 -14.777 -31.988  0.00  0.00    -0.297 N 
ATOM     19  H   ILE A   3       8.456 -14.412 -32.816  0.00  0.00    +0.150 HD
BRANCH  16  20
ATOM     20  CA  LEU A   2       6.848 -14.602 -30.824  0.00  0.00    +0.149 C 
BRANCH  20  23
ATOM     21  C   ASP A   1       6.880 -12.201 -31.373  0.00  0.00    +0.239 C 
ATOM     22  O   ASP A   1       7.677 -11.932 -30.478  0.00  0.00    -0.274 OA
ATOM     23  N   LEU A   2       6.458 -13.436 -31.636  0.00  0.00    -0.297 N 
ATOM     24  H   LEU A   2       5.826 -13.584 -32.449  0.00  0.00    +0.150 HD
BRANCH  21  25
ATOM     25  CA  ASP A   1       6.319 -11.106 -32.265  0.00  0.00    +0.156 C 
BRANCH  25  26
ATOM     26  N   ASP A   1       6.526 -11.465 -33.662  0.00  0.00    -0.238 NA
ATOM     27  H   ASP A   1       5.704 -11.513 -34.298  0.00  0.00    +0.142 HD
ENDBRANCH  25  26
BRANCH  25  28
ATOM     28  CB  ASP A   1       4.827 -10.932 -31.959  0.00  0.00    +0.140 C 
BRANCH  28  29
ATOM     29  CG  ASP A   1       4.260  -9.631 -32.503  0.00  0.00    +0.367 C 
ATOM     30  OD2 ASP A   1       5.035  -8.660 -32.647  0.00  0.00    -0.246 OA
ATOM     31  OD1 ASP A   1       3.040  -9.584 -32.787  0.00  0.00    -0.246 OA
ENDBRANCH  28  29
ENDBRANCH  25  28
ENDBRANCH  21  25
ENDBRANCH  20  23
BRANCH  20  32
ATOM     32  CB  LEU A   2       6.103 -15.850 -31.302  0.00  0.00    +0.029 C 
BRANCH  32  33
ATOM     33  CG  LEU A   2       4.591 -15.861 -31.075  0.00  0.00    +0.002 C 
ATOM     34  CD2 LEU A   2       4.303 -15.861 -29.579  0.00  0.00    +0.000 C 
ATOM     35  CD1 LEU A   2       3.984 -17.095 -31.728  0.00  0.00    +0.000 C 
ENDBRANCH  32  33
ENDBRANCH  20  32
ENDBRANCH  16  20
ENDBRANCH  15  18
BRANCH  15  36
ATOM     36  CB  ILE A   3      10.665 -15.734 -33.509  0.00  0.00    +0.027 C 
ATOM     37  CG2 ILE A   3      12.163 -15.982 -33.678  0.00  0.00    +0.002 C 
BRANCH  36  38
ATOM     38  CG1 ILE A   3       9.862 -17.027 -33.722  0.00  0.00    +0.002 C 
ATOM     39  CD1 ILE A   3       9.771 -17.451 -35.187  0.00  0.00    +0.000 C 
ENDBRANCH  36  38
ENDBRANCH  15  36
ENDBRANCH  11  15
ENDBRANCH  10  13
BRANCH  10  40
ATOM     40  CB  ASN A   4      12.333 -11.234 -33.637  0.00  0.00    +0.114 C 
BRANCH  40  41
ATOM     41  CG  ASN A   4      13.251 -12.223 -34.353  0.00  0.00    +0.222 C 
ATOM     42  OD1 ASN A   4      14.210 -12.753 -33.766  0.00  0.00    -0.275 OA
ATOM     43  ND2 ASN A   4      12.965 -12.470 -35.629  0.00  0.00    -0.329 N 
ATOM     44 HD21 ASN A   4      12.152 -12.003 -36.079  0.00  0.00    +0.145 HD
ATOM     45 HD22 ASN A   4      13.554 -13.130 -36.176  0.00  0.00    +0.145 HD
ENDBRANCH  40  41
ENDBRANCH  10  40
ENDBRANCH   6  10
ENDBRANCH   5   8
BRANCH   5  46
ATOM     46  CB  ASN A   5       8.676  -8.095 -31.858  0.00  0.00    +0.114 C 
BRANCH  46  47
ATOM     47  CG  ASN A   5       8.794  -8.019 -33.371  0.00  0.00    +0.222 C 
ATOM     48  OD1 ASN A   5       9.888  -7.877 -33.914  0.00  0.00    -0.275 OA
ATOM     49  ND2 ASN A   5       7.656  -8.109 -34.057  0.00  0.00    -0.329 N 
ATOM     50 HD21 ASN A   5       6.754  -8.229 -33.554  0.00  0.00    +0.145 HD
ATOM     51 HD22 ASN A   5       7.670  -8.060 -35.096  0.00  0.00    +0.145 HD
ENDBRANCH  46  47
ENDBRANCH   5  46
ENDBRANCH   1   5
BRANCH   3  52
ATOM     52  CA  LEU A   6       8.770  -9.529 -27.700  0.00  0.00    +0.149 C 
BRANCH  52  53
ATOM     53  C   LEU A   6      10.060  -9.697 -26.906  0.00  0.00    +0.241 C 
ATOM     54  O   LEU A   6      10.264  -9.000 -25.923  0.00  0.00    -0.273 OA
ATOM     55  N   GLY A   7      10.930 -10.592 -27.362  0.00  0.00    -0.295 N 
ATOM     56  H   GLY A   7      10.695 -11.127 -28.222  0.00  0.00    +0.150 HD
BRANCH  55  57
ATOM     57  CA  GLY A   7      12.214 -10.852 -26.693  0.00  0.00    +0.176 C 
BRANCH  57  58
ATOM     58  C   GLY A   7      13.169  -9.671 -26.756  0.00  0.00    +0.243 C 
ATOM     59  O   GLY A   7      13.889  -9.386 -25.786  0.00  0.00    -0.273 OA
ATOM     60  N   THR A   8      13.183  -8.992 -27.901  0.00  0.00    -0.295 N 
ATOM     61  H   THR A   8      12.599  -9.327 -28.694  0.00  0.00    +0.150 HD
BRANCH  60  62
ATOM     62  CA  THR A   8      13.994  -7.790 -28.076  0.00  0.00    +0.176 C 
BRANCH  62  63
ATOM     63  C   THR A   8      13.596  -6.721 -27.067  0.00  0.00    +0.243 C 
ATOM     64  O   THR A   8      14.454  -6.158 -26.386  0.00  0.00    -0.273 OA
ATOM     65  N   ILE A   9      12.296  -6.457 -26.952  0.00  0.00    -0.297 N 
ATOM     66  H   ILE A   9      11.615  -6.969 -27.548  0.00  0.00    +0.150 HD
BRANCH  65  67
ATOM     67  CA  ILE A   9      11.810  -5.458 -26.000  0.00  0.00    +0.149 C 
BRANCH  67  68
ATOM     68  C   ILE A   9      12.067  -5.913 -24.565  0.00  0.00    +0.241 C 
ATOM     69  O   ILE A   9      12.535  -5.124 -23.737  0.00  0.00    -0.273 OA
ATOM     70  N   ALA A  10      11.814  -7.195 -24.291  0.00  0.00    -0.297 N 
ATOM     71  H   ALA A  10      11.489  -7.814 -25.061  0.00  0.00    +0.150 HD
BRANCH  70  72
ATOM     72  CA  ALA A  10      11.974  -7.765 -22.954  0.00  0.00    +0.149 C 
ATOM     73  CB  ALA A  10      11.451  -9.195 -22.911  0.00  0.00    +0.031 C 
BRANCH  72  74
ATOM     74  C   ALA A  10      13.404  -7.721 -22.402  0.00  0.00    +0.241 C 
ATOM     75  O   ALA A  10      13.592  -7.665 -21.189  0.00  0.00    -0.273 OA
ATOM     76  N   LYS A  11      14.398  -7.766 -23.286  0.00  0.00    -0.298 N 
ATOM     77  H   LYS A  11      14.174  -7.808 -24.301  0.00  0.00    +0.150 HD
BRANCH  76  78
ATOM     78  CA  LYS A  11      15.802  -7.758 -22.861  0.00  0.00    +0.137 C 
BRANCH  78  79
ATOM     79  C   LYS A  11      16.116  -6.577 -21.945  0.00  0.00    +0.227 C 
ATOM     80  O   LYS A  11      16.727  -6.753 -20.887  0.00  0.00    -0.286 OA
ENDBRANCH  78  79
BRANCH  78  81
ATOM     81  CB  LYS A  11      16.742  -7.777 -24.076  0.00  0.00    +0.028 C 
BRANCH  81  82
ATOM     82  CG  LYS A  11      18.201  -8.036 -23.736  0.00  0.00    -0.000 C 
BRANCH  82  83
ATOM     83  CD  LYS A  11      19.097  -7.835 -24.959  0.00  0.00    -0.024 C 
BRANCH  83  84
ATOM     84  CE  LYS A  11      20.576  -7.937 -24.590  0.00  0.00    -0.086 C 
BRANCH  84  85
ATOM     85  NZ  LYS A  11      21.439  -7.872 -25.808  0.00  0.00    +0.380 N 
ATOM     86  HZ1 LYS A  11      22.438  -7.944 -25.528  0.00  0.00    -0.089 HD
ATOM     87  HZ2 LYS A  11      21.279  -6.968 -26.297  0.00  0.00    -0.089 HD
ATOM     88  HZ3 LYS A  11      21.199  -8.659 -26.444  0.00  0.00    -0.089 HD
ENDBRANCH  84  85
ENDBRANCH  83  84
ENDBRANCH  82  83
ENDBRANCH  81  82
ENDBRANCH  78  81
ENDBRANCH  76  78
ENDBRANCH  72  74
ENDBRANCH  70  72
ENDBRANCH  67  68
BRANCH  67  89
ATOM     89  CB  ILE A   9      10.315  -5.103 -26.246  0.00  0.00    +0.027 C 
ATOM     90  CG2 ILE A   9       9.805  -4.081 -25.232  0.00  0.00    +0.002 C 
BRANCH  89  91
ATOM     91  CG1 ILE A   9      10.107  -4.601 -27.687  0.00  0.00    +0.002 C 
ATOM     92  CD1 ILE A   9      10.849  -3.303 -28.047  0.00  0.00    +0.000 C 
ENDBRANCH  89  91
ENDBRANCH  67  89
ENDBRANCH  65  67
ENDBRANCH  62  63
BRANCH  62  93
ATOM     93  CB  THR A   8      13.893  -7.228 -29.506  0.00  0.00    +0.137 C 
ATOM     94  CG2 THR A   8      14.661  -5.903 -29.623  0.00  0.00    +0.034 C 
BRANCH  93  95
ATOM     95  OG1 THR A   8      14.444  -8.179 -30.423  0.00  0.00    -0.382 OA
ATOM     96  HG1 THR A   8      13.937  -9.027 -30.361  0.00  0.00    +0.210 HD
ENDBRANCH  93  95
ENDBRANCH  62  93
ENDBRANCH  60  62
ENDBRANCH  57  58
ENDBRANCH  55  57
ENDBRANCH  52  53
BRANCH  52  97
ATOM     97  CB  LEU A   6       7.753 -10.611 -27.345  0.00  0.00    +0.029 C 
BRANCH  97  98
ATOM     98  CG  LEU A   6       6.344 -10.277 -27.855  0.00  0.00    +0.002 C 
ATOM     99  CD2 LEU A   6       5.719  -9.158 -27.030  0.00  0.00    +0.000 C 
ATOM    100  CD1 LEU A   6       5.461 -11.512 -27.846  0.00  0.00    +0.000 C 
ENDBRANCH  97  98
ENDBRANCH  52  97
ENDBRANCH   3  52
TORSDOF 43
REMARK  Name = ../refined-set-2016/3d0b/3d0b_pocket.pdb
REMARK  253 active torsions:
REMARK  status: ('A' for Active; 'I' for Inactive)
REMARK    1  A    between atoms: _1  and  _3
REMARK    2  A    between atoms: _3  and  _4
REMARK    3  A    between atoms: _3  and  _6
REMARK    4  A    between atoms: _6  and  _7
REMARK    5  A    between atoms: _13  and  _15
REMARK    6  A    between atoms: _15  and  _16
REMARK    7  A    between atoms: _15  and  _18
REMARK    8  A    between atoms: _18  and  _19
REMARK    9  A    between atoms: _19  and  _20
REMARK   10  A    between atoms: _25  and  _27
REMARK   11  A    between atoms: _27  and  _28
REMARK   12  A    between atoms: _27  and  _30
REMARK   13  A    between atoms: _30  and  _31
REMARK   14  A    between atoms: _34  and  _36
REMARK   15  A    between atoms: _36  and  _37
REMARK   16  A    between atoms: _36  and  _39
REMARK   17  A    between atoms: _39  and  _40
REMARK   18  A    between atoms: _40  and  _41
REMARK   19  A    between atoms: _43  and  _45
REMARK   20  A    between atoms: _45  and  _46
REMARK   21  A    between atoms: _45  and  _48
REMARK   22  A    between atoms: _48  and  _49
REMARK   23  A    between atoms: _49  and  _50
REMARK   24  A    between atoms: _53  and  _55
REMARK   25  A    between atoms: _55  and  _56
REMARK   26  A    between atoms: _55  and  _58
REMARK   27  A    between atoms: _58  and  _59
REMARK   28  A    between atoms: _62  and  _64
REMARK   29  A    between atoms: _64  and  _65
REMARK   30  A    between atoms: _64  and  _67
REMARK   31  A    between atoms: _67  and  _68
REMARK   32  A    between atoms: _71  and  _73
REMARK   33  A    between atoms: _73  and  _74
REMARK   34  A    between atoms: _73  and  _76
REMARK   35  A    between atoms: _76  and  _77
REMARK   36  A    between atoms: _79  and  _81
REMARK   37  A    between atoms: _81  and  _82
REMARK   38  A    between atoms: _81  and  _84
REMARK   39  A    between atoms: _84  and  _85
REMARK   40  A    between atoms: _90  and  _92
REMARK   41  A    between atoms: _92  and  _93
REMARK   42  A    between atoms: _92  and  _95
REMARK   43  A    between atoms: _95  and  _96
REMARK   44  A    between atoms: _98  and  _100
REMARK   45  A    between atoms: _100  and  _101
REMARK   46  A    between atoms: _100  and  _103
REMARK   47  A    between atoms: _103  and  _104
REMARK   48  A    between atoms: _106  and  _108
REMARK   49  A    between atoms: _108  and  _109
REMARK   50  A    between atoms: _108  and  _111
REMARK   51  A    between atoms: _111  and  _112
REMARK   52  A    between atoms: _115  and  _117
REMARK   53  A    between atoms: _117  and  _118
REMARK   54  A    between atoms: _121  and  _123
REMARK   55  A    between atoms: _123  and  _124
REMARK   56  A    between atoms: _123  and  _126
REMARK   57  A    between atoms: _126  and  _127
REMARK   58  A    between atoms: _130  and  _132
REMARK   59  A    between atoms: _132  and  _133
REMARK   60  A    between atoms: _132  and  _135
REMARK   61  A    between atoms: _135  and  _136
REMARK   62  A    between atoms: _139  and  _141
REMARK   63  A    between atoms: _141  and  _142
REMARK   64  A    between atoms: _141  and  _144
REMARK   65  A    between atoms: _144  and  _145
REMARK   66  A    between atoms: _145  and  _146
REMARK   67  A    between atoms: _146  and  _147
REMARK   68  A    between atoms: _147  and  _148
REMARK   69  A    between atoms: _152  and  _154
REMARK   70  A    between atoms: _154  and  _155
REMARK   71  A    between atoms: _154  and  _157
REMARK   72  A    between atoms: _157  and  _158
REMARK   73  A    between atoms: _161  and  _163
REMARK   74  A    between atoms: _163  and  _164
REMARK   75  A    between atoms: _163  and  _166
REMARK   76  A    between atoms: _166  and  _167
REMARK   77  A    between atoms: _170  and  _172
REMARK   78  A    between atoms: _172  and  _173
REMARK   79  A    between atoms: _172  and  _175
REMARK   80  A    between atoms: _175  and  _176
REMARK   81  A    between atoms: _179  and  _181
REMARK   82  A    between atoms: _181  and  _182
REMARK   83  A    between atoms: _181  and  _184
REMARK   84  A    between atoms: _187  and  _189
REMARK   85  A    between atoms: _189  and  _190
REMARK   86  A    between atoms: _189  and  _192
REMARK   87  A    between atoms: _192  and  _193
REMARK   88  A    between atoms: _196  and  _198
REMARK   89  A    between atoms: _198  and  _199
REMARK   90  A    between atoms: _198  and  _201
REMARK   91  A    between atoms: _201  and  _202
REMARK   92  A    between atoms: _205  and  _207
REMARK   93  A    between atoms: _207  and  _208
REMARK   94  A    between atoms: _210  and  _212
REMARK   95  A    between atoms: _212  and  _213
REMARK   96  A    between atoms: _212  and  _215
REMARK   97  A    between atoms: _215  and  _216
REMARK   98  A    between atoms: _219  and  _221
REMARK   99  A    between atoms: _221  and  _222
REMARK  100  A    between atoms: _224  and  _226
REMARK  101  A    between atoms: _226  and  _227
REMARK  102  A    between atoms: _226  and  _229
REMARK  103  A    between atoms: _229  and  _230
REMARK  104  A    between atoms: _230  and  _231
REMARK  105  A    between atoms: _233  and  _235
REMARK  106  A    between atoms: _235  and  _236
REMARK  107  A    between atoms: _235  and  _238
REMARK  108  A    between atoms: _238  and  _239
REMARK  109  A    between atoms: _242  and  _244
REMARK  110  A    between atoms: _244  and  _245
REMARK  111  A    between atoms: _244  and  _247
REMARK  112  A    between atoms: _247  and  _248
REMARK  113  A    between atoms: _251  and  _253
REMARK  114  A    between atoms: _253  and  _254
REMARK  115  A    between atoms: _253  and  _256
REMARK  116  A    between atoms: _256  and  _257
REMARK  117  A    between atoms: _260  and  _262
REMARK  118  A    between atoms: _262  and  _263
REMARK  119  A    between atoms: _262  and  _265
REMARK  120  A    between atoms: _265  and  _266
REMARK  121  A    between atoms: _269  and  _271
REMARK  122  A    between atoms: _271  and  _272
REMARK  123  A    between atoms: _271  and  _274
REMARK  124  A    between atoms: _274  and  _275
REMARK  125  A    between atoms: _280  and  _282
REMARK  126  A    between atoms: _282  and  _283
REMARK  127  A    between atoms: _282  and  _285
REMARK  128  A    between atoms: _285  and  _286
REMARK  129  A    between atoms: _291  and  _293
REMARK  130  A    between atoms: _293  and  _294
REMARK  131  A    between atoms: _293  and  _296
REMARK  132  A    between atoms: _296  and  _297
REMARK  133  A    between atoms: _300  and  _302
REMARK  134  A    between atoms: _302  and  _303
REMARK  135  A    between atoms: _305  and  _307
REMARK  136  A    between atoms: _307  and  _308
REMARK  137  A    between atoms: _307  and  _310
REMARK  138  A    between atoms: _310  and  _311
REMARK  139  A    between atoms: _314  and  _316
REMARK  140  A    between atoms: _316  and  _317
REMARK  141  A    between atoms: _316  and  _319
REMARK  142  A    between atoms: _319  and  _320
REMARK  143  A    between atoms: _323  and  _325
REMARK  144  A    between atoms: _325  and  _326
REMARK  145  A    between atoms: _329  and  _331
REMARK  146  A    between atoms: _331  and  _332
REMARK  147  A    between atoms: _331  and  _334
REMARK  148  A    between atoms: _334  and  _335
REMARK  149  A    between atoms: _335  and  _336
REMARK  150  A    between atoms: _336  and  _337
REMARK  151  A    between atoms: _337  and  _338
REMARK  152  A    between atoms: _342  and  _344
REMARK  153  A    between atoms: _344  and  _345
REMARK  154  A    between atoms: _344  and  _347
REMARK  155  A    between atoms: _347  and  _348
REMARK  156  A    between atoms: _351  and  _353
REMARK  157  A    between atoms: _353  and  _354
REMARK  158  A    between atoms: _353  and  _356
REMARK  159  A    between atoms: _356  and  _357
REMARK  160  A    between atoms: _363  and  _365
REMARK  161  A    between atoms: _365  and  _366
REMARK  162  A    between atoms: _368  and  _370
REMARK  163  A    between atoms: _370  and  _371
REMARK  164  A    between atoms: _370  and  _373
REMARK  165  A    between atoms: _376  and  _378
REMARK  166  A    between atoms: _378  and  _379
REMARK  167  A    between atoms: _381  and  _383
REMARK  168  A    between atoms: _383  and  _384
REMARK  169  A    between atoms: _383  and  _386
REMARK  170  A    between atoms: _386  and  _387
REMARK  171  A    between atoms: _393  and  _395
REMARK  172  A    between atoms: _395  and  _396
REMARK  173  A    between atoms: _395  and  _398
REMARK  174  A    between atoms: _398  and  _399
REMARK  175  A    between atoms: _404  and  _405
REMARK  176  A    between atoms: _407  and  _409
REMARK  177  A    between atoms: _409  and  _410
REMARK  178  A    between atoms: _409  and  _412
REMARK  179  A    between atoms: _412  and  _413
REMARK  180  A    between atoms: _415  and  _417
REMARK  181  A    between atoms: _417  and  _418
REMARK  182  A    between atoms: _417  and  _420
REMARK  183  A    between atoms: _420  and  _421
REMARK  184  A    between atoms: _426  and  _427
REMARK  185  A    between atoms: _429  and  _431
REMARK  186  A    between atoms: _431  and  _432
REMARK  187  A    between atoms: _431  and  _434
REMARK  188  A    between atoms: _437  and  _439
REMARK  189  A    between atoms: _439  and  _440
REMARK  190  A    between atoms: _439  and  _442
REMARK  191  A    between atoms: _442  and  _443
REMARK  192  A    between atoms: _446  and  _448
REMARK  193  A    between atoms: _448  and  _449
REMARK  194  A    between atoms: _448  and  _451
REMARK  195  A    between atoms: _454  and  _456
REMARK  196  A    between atoms: _456  and  _457
REMARK  197  A    between atoms: _456  and  _459
REMARK  198  A    between atoms: _459  and  _460
REMARK  199  A    between atoms: _463  and  _465
REMARK  200  A    between atoms: _465  and  _466
REMARK  201  A    between atoms: _465  and  _468
REMARK  202  A    between atoms: _468  and  _469
REMARK  203  A    between atoms: _472  and  _474
REMARK  204  A    between atoms: _474  and  _475
REMARK  205  A    between atoms: _474  and  _477
REMARK  206  A    between atoms: _477  and  _478
REMARK  207  A    between atoms: _478  and  _479
REMARK  208  A    between atoms: _479  and  _480
REMARK  209  A    between atoms: _480  and  _481
REMARK  210  A    between atoms: _485  and  _487
REMARK  211  A    between atoms: _487  and  _488
REMARK  212  A    between atoms: _487  and  _490
REMARK  213  A    between atoms: _490  and  _491
REMARK  214  A    between atoms: _496  and  _498
REMARK  215  A    between atoms: _498  and  _499
REMARK  216  A    between atoms: _498  and  _501
REMARK  217  A    between atoms: _501  and  _502
REMARK  218  A    between atoms: _512  and  _514
REMARK  219  A    between atoms: _514  and  _515
REMARK  220  A    between atoms: _514  and  _517
REMARK  221  A    between atoms: _517  and  _518
REMARK  222  A    between atoms: _518  and  _519
REMARK  223  A    between atoms: _522  and  _524
REMARK  224  A    between atoms: _524  and  _525
REMARK  225  A    between atoms: _524  and  _527
REMARK  226  A    between atoms: _527  and  _528
REMARK  227  A    between atoms: _530  and  _532
REMARK  228  A    between atoms: _532  and  _533
REMARK  229  A    between atoms: _532  and  _535
REMARK  230  A    between atoms: _535  and  _536
REMARK  231  A    between atoms: _542  and  _544
REMARK  232  A    between atoms: _544  and  _545
REMARK  233  A    between atoms: _544  and  _547
REMARK  234  A    between atoms: _547  and  _548
REMARK  235  A    between atoms: _551  and  _553
REMARK  236  A    between atoms: _553  and  _554
REMARK  237  A    between atoms: _553  and  _556
REMARK  238  A    between atoms: _559  and  _561
REMARK  239  A    between atoms: _561  and  _562
REMARK  240  A    between atoms: _564  and  _566
REMARK  241  A    between atoms: _566  and  _567
REMARK  242  A    between atoms: _566  and  _569
REMARK  243  A    between atoms: _569  and  _570
REMARK  244  A    between atoms: _573  and  _575
REMARK  245  A    between atoms: _575  and  _576
REMARK  246  A    between atoms: _575  and  _578
REMARK  247  A    between atoms: _578  and  _579
REMARK  248  A    between atoms: _579  and  _580
REMARK  249  A    between atoms: _580  and  _581
REMARK  250  A    between atoms: _581  and  _582
REMARK  251  A    between atoms: _586  and  _588
REMARK  252  A    between atoms: _588  and  _589
REMARK  253  A    between atoms: _588  and  _591
REMARK                            x       y       z     vdW  Elec       q    Type
REMARK                         _______ _______ _______ _____ _____    ______ ____
ROOT
ATOM      1  CA  THR A   1      14.708  -7.861 -17.809  0.00  0.00    +0.160 C 
ENDROOT
BRANCH   1   2
ATOM      2  N   THR A   1      14.090  -6.842 -18.647  0.00  0.00    -0.237 NA
ATOM      3  H   THR A   1      14.049  -6.999 -19.674  0.00  0.00    +0.142 HD
ENDBRANCH   1   2
BRANCH   1   4
ATOM      4  C   THR A   1      15.924  -7.305 -17.079  0.00  0.00    +0.227 C 
ATOM      5  O   THR A   1      16.062  -7.492 -15.863  0.00  0.00    -0.287 OA
ENDBRANCH   1   4
BRANCH   1   6
ATOM      6  CB  THR A   1      15.081  -9.115 -18.644  0.00  0.00    +0.134 C 
ATOM      7  CG2 THR A   1      15.875 -10.099 -17.818  0.00  0.00    +0.034 C 
BRANCH   6   8
ATOM      8  OG1 THR A   1      13.877  -9.748 -19.084  0.00  0.00    -0.383 OA
ATOM      9  HG1 THR A   1      13.357  -9.115 -19.641  0.00  0.00    +0.210 HD
ENDBRANCH   6   8
ENDBRANCH   1   6
TORSDOF 4
REMARK  Name = ../refined-set-2016/3d0b/3d0b_pocket.pdb
REMARK  253 active torsions:
REMARK  status: ('A' for Active; 'I' for Inactive)
REMARK    1  A    between atoms: _1  and  _3
REMARK    2  A    between atoms: _3  and  _4
REMARK    3  A    between atoms: _3  and  _6
REMARK    4  A    between atoms: _6  and  _7
REMARK    5  A    between atoms: _13  and  _15
REMARK    6  A    between atoms: _15  and  _16
REMARK    7  A    between atoms: _15  and  _18
REMARK    8  A    between atoms: _18  and  _19
REMARK    9  A    between atoms: _19  and  _20
REMARK   10  A    between atoms: _25  and  _27
REMARK   11  A    between atoms: _27  and  _28
REMARK   12  A    between atoms: _27  and  _30
REMARK   13  A    between atoms: _30  and  _31
REMARK   14  A    between atoms: _34  and  _36
REMARK   15  A    between atoms: _36  and  _37
REMARK   16  A    between atoms: _36  and  _39
REMARK   17  A    between atoms: _39  and  _40
REMARK   18  A    between atoms: _40  and  _41
REMARK   19  A    between atoms: _43  and  _45
REMARK   20  A    between atoms: _45  and  _46
REMARK   21  A    between atoms: _45  and  _48
REMARK   22  A    between atoms: _48  and  _49
REMARK   23  A    between atoms: _49  and  _50
REMARK   24  A    between atoms: _53  and  _55
REMARK   25  A    between atoms: _55  and  _56
REMARK   26  A    between atoms: _55  and  _58
REMARK   27  A    between atoms: _58  and  _59
REMARK   28  A    between atoms: _62  and  _64
REMARK   29  A    between atoms: _64  and  _65
REMARK   30  A    between atoms: _64  and  _67
REMARK   31  A    between atoms: _67  and  _68
REMARK   32  A    between atoms: _71  and  _73
REMARK   33  A    between atoms: _73  and  _74
REMARK   34  A    between atoms: _73  and  _76
REMARK   35  A    between atoms: _76  and  _77
REMARK   36  A    between atoms: _79  and  _81
REMARK   37  A    between atoms: _81  and  _82
REMARK   38  A    between atoms: _81  and  _84
REMARK   39  A    between atoms: _84  and  _85
REMARK   40  A    between atoms: _90  and  _92
REMARK   41  A    between atoms: _92  and  _93
REMARK   42  A    between atoms: _92  and  _95
REMARK   43  A    between atoms: _95  and  _96
REMARK   44  A    between atoms: _98  and  _100
REMARK   45  A    between atoms: _100  and  _101
REMARK   46  A    between atoms: _100  and  _103
REMARK   47  A    between atoms: _103  and  _104
REMARK   48  A    between atoms: _106  and  _108
REMARK   49  A    between atoms: _108  and  _109
REMARK   50  A    between atoms: _108  and  _111
REMARK   51  A    between atoms: _111  and  _112
REMARK   52  A    between atoms: _115  and  _117
REMARK   53  A    between atoms: _117  and  _118
REMARK   54  A    between atoms: _121  and  _123
REMARK   55  A    between atoms: _123  and  _124
REMARK   56  A    between atoms: _123  and  _126
REMARK   57  A    between atoms: _126  and  _127
REMARK   58  A    between atoms: _130  and  _132
REMARK   59  A    between atoms: _132  and  _133
REMARK   60  A    between atoms: _132  and  _135
REMARK   61  A    between atoms: _135  and  _136
REMARK   62  A    between atoms: _139  and  _141
REMARK   63  A    between atoms: _141  and  _142
REMARK   64  A    between atoms: _141  and  _144
REMARK   65  A    between atoms: _144  and  _145
REMARK   66  A    between atoms: _145  and  _146
REMARK   67  A    between atoms: _146  and  _147
REMARK   68  A    between atoms: _147  and  _148
REMARK   69  A    between atoms: _152  and  _154
REMARK   70  A    between atoms: _154  and  _155
REMARK   71  A    between atoms: _154  and  _157
REMARK   72  A    between atoms: _157  and  _158
REMARK   73  A    between atoms: _161  and  _163
REMARK   74  A    between atoms: _163  and  _164
REMARK   75  A    between atoms: _163  and  _166
REMARK   76  A    between atoms: _166  and  _167
REMARK   77  A    between atoms: _170  and  _172
REMARK   78  A    between atoms: _172  and  _173
REMARK   79  A    between atoms: _172  and  _175
REMARK   80  A    between atoms: _175  and  _176
REMARK   81  A    between atoms: _179  and  _181
REMARK   82  A    between atoms: _181  and  _182
REMARK   83  A    between atoms: _181  and  _184
REMARK   84  A    between atoms: _187  and  _189
REMARK   85  A    between atoms: _189  and  _190
REMARK   86  A    between atoms: _189  and  _192
REMARK   87  A    between atoms: _192  and  _193
REMARK   88  A    between atoms: _196  and  _198
REMARK   89  A    between atoms: _198  and  _199
REMARK   90  A    between atoms: _198  and  _201
REMARK   91  A    between atoms: _201  and  _202
REMARK   92  A    between atoms: _205  and  _207
REMARK   93  A    between atoms: _207  and  _208
REMARK   94  A    between atoms: _210  and  _212
REMARK   95  A    between atoms: _212  and  _213
REMARK   96  A    between atoms: _212  and  _215
REMARK   97  A    between atoms: _215  and  _216
REMARK   98  A    between atoms: _219  and  _221
REMARK   99  A    between atoms: _221  and  _222
REMARK  100  A    between atoms: _224  and  _226
REMARK  101  A    between atoms: _226  and  _227
REMARK  102  A    between atoms: _226  and  _229
REMARK  103  A    between atoms: _229  and  _230
REMARK  104  A    between atoms: _230  and  _231
REMARK  105  A    between atoms: _233  and  _235
REMARK  106  A    between atoms: _235  and  _236
REMARK  107  A    between atoms: _235  and  _238
REMARK  108  A    between atoms: _238  and  _239
REMARK  109  A    between atoms: _242  and  _244
REMARK  110  A    between atoms: _244  and  _245
REMARK  111  A    between atoms: _244  and  _247
REMARK  112  A    between atoms: _247  and  _248
REMARK  113  A    between atoms: _251  and  _253
REMARK  114  A    between atoms: _253  and  _254
REMARK  115  A    between atoms: _253  and  _256
REMARK  116  A    between atoms: _256  and  _257
REMARK  117  A    between atoms: _260  and  _262
REMARK  118  A    between atoms: _262  and  _263
REMARK  119  A    between atoms: _262  and  _265
REMARK  120  A    between atoms: _265  and  _266
REMARK  121  A    between atoms: _269  and  _271
REMARK  122  A    between atoms: _271  and  _272
REMARK  123  A    between atoms: _271  and  _274
REMARK  124  A    between atoms: _274  and  _275
REMARK  125  A    between atoms: _280  and  _282
REMARK  126  A    between atoms: _282  and  _283
REMARK  127  A    between atoms: _282  and  _285
REMARK  128  A    between atoms: _285  and  _286
REMARK  129  A    between atoms: _291  and  _293
REMARK  130  A    between atoms: _293  and  _294
REMARK  131  A    between atoms: _293  and  _296
REMARK  132  A    between atoms: _296  and  _297
REMARK  133  A    between atoms: _300  and  _302
REMARK  134  A    between atoms: _302  and  _303
REMARK  135  A    between atoms: _305  and  _307
REMARK  136  A    between atoms: _307  and  _308
REMARK  137  A    between atoms: _307  and  _310
REMARK  138  A    between atoms: _310  and  _311
REMARK  139  A    between atoms: _314  and  _316
REMARK  140  A    between atoms: _316  and  _317
REMARK  141  A    between atoms: _316  and  _319
REMARK  142  A    between atoms: _319  and  _320
REMARK  143  A    between atoms: _323  and  _325
REMARK  144  A    between atoms: _325  and  _326
REMARK  145  A    between atoms: _329  and  _331
REMARK  146  A    between atoms: _331  and  _332
REMARK  147  A    between atoms: _331  and  _334
REMARK  148  A    between atoms: _334  and  _335
REMARK  149  A    between atoms: _335  and  _336
REMARK  150  A    between atoms: _336  and  _337
REMARK  151  A    between atoms: _337  and  _338
REMARK  152  A    between atoms: _342  and  _344
REMARK  153  A    between atoms: _344  and  _345
REMARK  154  A    between atoms: _344  and  _347
REMARK  155  A    between atoms: _347  and  _348
REMARK  156  A    between atoms: _351  and  _353
REMARK  157  A    between atoms: _353  and  _354
REMARK  158  A    between atoms: _353  and  _356
REMARK  159  A    between atoms: _356  and  _357
REMARK  160  A    between atoms: _363  and  _365
REMARK  161  A    between atoms: _365  and  _366
REMARK  162  A    between atoms: _368  and  _370
REMARK  163  A    between atoms: _370  and  _371
REMARK  164  A    between atoms: _370  and  _373
REMARK  165  A    between atoms: _376  and  _378
REMARK  166  A    between atoms: _378  and  _379
REMARK  167  A    between atoms: _381  and  _383
REMARK  168  A    between atoms: _383  and  _384
REMARK  169  A    between atoms: _383  and  _386
REMARK  170  A    between atoms: _386  and  _387
REMARK  171  A    between atoms: _393  and  _395
REMARK  172  A    between atoms: _395  and  _396
REMARK  173  A    between atoms: _395  and  _398
REMARK  174  A    between atoms: _398  and  _399
REMARK  175  A    between atoms: _404  and  _405
REMARK  176  A    between atoms: _407  and  _409
REMARK  177  A    between atoms: _409  and  _410
REMARK  178  A    between atoms: _409  and  _412
REMARK  179  A    between atoms: _412  and  _413
REMARK  180  A    between atoms: _415  and  _417
REMARK  181  A    between atoms: _417  and  _418
REMARK  182  A    between atoms: _417  and  _420
REMARK  183  A    between atoms: _420  and  _421
REMARK  184  A    between atoms: _426  and  _427
REMARK  185  A    between atoms: _429  and  _431
REMARK  186  A    between atoms: _431  and  _432
REMARK  187  A    between atoms: _431  and  _434
REMARK  188  A    between atoms: _437  and  _439
REMARK  189  A    between atoms: _439  and  _440
REMARK  190  A    between atoms: _439  and  _442
REMARK  191  A    between atoms: _442  and  _443
REMARK  192  A    between atoms: _446  and  _448
REMARK  193  A    between atoms: _448  and  _449
REMARK  194  A    between atoms: _448  and  _451
REMARK  195  A    between atoms: _454  and  _456
REMARK  196  A    between atoms: _456  and  _457
REMARK  197  A    between atoms: _456  and  _459
REMARK  198  A    between atoms: _459  and  _460
REMARK  199  A    between atoms: _463  and  _465
REMARK  200  A    between atoms: _465  and  _466
REMARK  201  A    between atoms: _465  and  _468
REMARK  202  A    between atoms: _468  and  _469
REMARK  203  A    between atoms: _472  and  _474
REMARK  204  A    between atoms: _474  and  _475
REMARK  205  A    between atoms: _474  and  _477
REMARK  206  A    between atoms: _477  and  _478
REMARK  207  A    between atoms: _478  and  _479
REMARK  208  A    between atoms: _479  and  _480
REMARK  209  A    between atoms: _480  and  _481
REMARK  210  A    between atoms: _485  and  _487
REMARK  211  A    between atoms: _487  and  _488
REMARK  212  A    between atoms: _487  and  _490
REMARK  213  A    between atoms: _490  and  _491
REMARK  214  A    between atoms: _496  and  _498
REMARK  215  A    between atoms: _498  and  _499
REMARK  216  A    between atoms: _498  and  _501
REMARK  217  A    between atoms: _501  and  _502
REMARK  218  A    between atoms: _512  and  _514
REMARK  219  A    between atoms: _514  and  _515
REMARK  220  A    between atoms: _514  and  _517
REMARK  221  A    between atoms: _517  and  _518
REMARK  222  A    between atoms: _518  and  _519
REMARK  223  A    between atoms: _522  and  _524
REMARK  224  A    between atoms: _524  and  _525
REMARK  225  A    between atoms: _524  and  _527
REMARK  226  A    between atoms: _527  and  _528
REMARK  227  A    between atoms: _530  and  _532
REMARK  228  A    between atoms: _532  and  _533
REMARK  229  A    between atoms: _532  and  _535
REMARK  230  A    between atoms: _535  and  _536
REMARK  231  A    between atoms: _542  and  _544
REMARK  232  A    between atoms: _544  and  _545
REMARK  233  A    between atoms: _544  and  _547
REMARK  234  A    between atoms: _547  and  _548
REMARK  235  A    between atoms: _551  and  _553
REMARK  236  A    between atoms: _553  and  _554
REMARK  237  A    between atoms: _553  and  _556
REMARK  238  A    between atoms: _559  and  _561
REMARK  239  A    between atoms: _561  and  _562
REMARK  240  A    between atoms: _564  and  _566
REMARK  241  A    between atoms: _566  and  _567
REMARK  242  A    between atoms: _566  and  _569
REMARK  243  A    between atoms: _569  and  _570
REMARK  244  A    between atoms: _573  and  _575
REMARK  245  A    between atoms: _575  and  _576
REMARK  246  A    between atoms: _575  and  _578
REMARK  247  A    between atoms: _578  and  _579
REMARK  248  A    between atoms: _579  and  _580
REMARK  249  A    between atoms: _580  and  _581
REMARK  250  A    between atoms: _581  and  _582
REMARK  251  A    between atoms: _586  and  _588
REMARK  252  A    between atoms: _588  and  _589
REMARK  253  A    between atoms: _588  and  _591
REMARK                            x       y       z     vdW  Elec       q    Type
REMARK                         _______ _______ _______ _____ _____    ______ ____
ROOT
ATOM      1  C   GLY A   4       4.807 -10.992 -16.778  0.00  0.00    +0.243 C 
ATOM      2  O   GLY A   4       4.523 -11.883 -15.986  0.00  0.00    -0.273 OA
ATOM      3  N   PHE A   5       4.812 -11.182 -18.095  0.00  0.00    -0.297 N 
ATOM      4  H   PHE A   5       5.036 -10.390 -18.731  0.00  0.00    +0.150 HD
ENDROOT
BRANCH   1   5
ATOM      5  CA  GLY A   4       5.177  -9.604 -16.268  0.00  0.00    +0.176 C 
BRANCH   5   8
ATOM      6  C   VAL A   3       7.286  -9.370 -17.517  0.00  0.00    +0.241 C 
ATOM      7  O   VAL A   3       7.698 -10.487 -17.153  0.00  0.00    -0.273 OA
ATOM      8  N   GLY A   4       6.103  -8.877 -17.155  0.00  0.00    -0.295 N 
ATOM      9  H   GLY A   4       5.821  -7.942 -17.512  0.00  0.00    +0.150 HD
BRANCH   6  10
ATOM     10  CA  VAL A   3       8.120  -8.477 -18.461  0.00  0.00    +0.149 C 
BRANCH  10  12
ATOM     11  C   GLY A   2       7.374  -6.302 -19.304  0.00  0.00    +0.243 C 
ATOM     12  N   VAL A   3       7.807  -7.052 -18.297  0.00  0.00    -0.297 N 
ATOM     13  H   VAL A   3       7.928  -6.615 -17.361  0.00  0.00    +0.150 HD
ATOM     14  O   GLY A   2       7.200  -6.746 -20.436  0.00  0.00    -0.273 OA
BRANCH  11  15
ATOM     15  CA  GLY A   2       7.091  -4.837 -19.001  0.00  0.00    +0.176 C 
BRANCH  15  17
ATOM     16  C   PHE A   1       8.948  -4.094 -17.577  0.00  0.00    +0.239 C 
ATOM     17  N   GLY A   2       7.644  -4.323 -17.749  0.00  0.00    -0.296 N 
ATOM     18  H   GLY A   2       6.995  -4.128 -16.960  0.00  0.00    +0.150 HD
ATOM     19  O   PHE A   1       9.796  -4.335 -18.435  0.00  0.00    -0.274 OA
BRANCH  16  20
ATOM     20  CA  PHE A   1       9.349  -3.510 -16.232  0.00  0.00    +0.149 C 
BRANCH  20  21
ATOM     21  N   PHE A   1       8.218  -3.388 -15.315  0.00  0.00    -0.238 NA
ATOM     22  H   PHE A   1       7.807  -4.244 -14.891  0.00  0.00    +0.142 HD
ENDBRANCH  20  21
BRANCH  20  23
ATOM     23  CB  PHE A   1      10.496  -4.279 -15.561  0.00  0.00    +0.053 C 
BRANCH  23  24
ATOM     24  CG  PHE A   1      10.942  -3.653 -14.257  0.00  0.00    -0.020 A 
ATOM     25  CD2 PHE A   1      10.331  -4.003 -13.061  0.00  0.00    -0.004 A 
ATOM     26  CE2 PHE A   1      10.709  -3.414 -11.850  0.00  0.00    -0.000 A 
ATOM     27  CZ  PHE A   1      11.713  -2.450 -11.839  0.00  0.00    -0.000 A 
ATOM     28  CE1 PHE A   1      12.329  -2.074 -13.031  0.00  0.00    -0.000 A 
ATOM     29  CD1 PHE A   1      11.937  -2.669 -14.240  0.00  0.00    -0.004 A 
ENDBRANCH  23  24
ENDBRANCH  20  23
ENDBRANCH  16  20
ENDBRANCH  15  17
ENDBRANCH  11  15
ENDBRANCH  10  12
BRANCH  10  30
ATOM     30  CB  VAL A   3       9.644  -8.751 -18.316  0.00  0.00    +0.027 C 
ATOM     31  CG2 VAL A   3      10.165  -8.246 -16.977  0.00  0.00    +0.002 C 
ATOM     32  CG1 VAL A   3      10.404  -8.082 -19.473  0.00  0.00    +0.002 C 
ENDBRANCH  10  30
ENDBRANCH   6  10
ENDBRANCH   5   8
ENDBRANCH   1   5
BRANCH   3  33
ATOM     33  CA  PHE A   5       4.500 -12.517 -18.660  0.00  0.00    +0.153 C 
BRANCH  33  34
ATOM     34  C   PHE A   5       5.294 -13.645 -17.992  0.00  0.00    +0.241 C 
ATOM     35  N   TYR A   6       6.576 -13.404 -17.713  0.00  0.00    -0.297 N 
ATOM     36  H   TYR A   6       6.970 -12.452 -17.855  0.00  0.00    +0.150 HD
ATOM     37  O   PHE A   5       4.758 -14.727 -17.750  0.00  0.00    -0.273 OA
BRANCH  35  38
ATOM     38  CA  TYR A   6       7.426 -14.482 -17.206  0.00  0.00    +0.153 C 
BRANCH  38  39
ATOM     39  C   TYR A   6       7.069 -14.901 -15.786  0.00  0.00    +0.241 C 
ATOM     40  N   SER A   7       6.291 -14.069 -15.099  0.00  0.00    -0.296 N 
ATOM     41  H   SER A   7       6.062 -13.135 -15.495  0.00  0.00    +0.150 HD
ATOM     42  O   TYR A   6       7.472 -15.977 -15.322  0.00  0.00    -0.273 OA
BRANCH  40  43
ATOM     43  CA  SER A   7       5.753 -14.451 -13.794  0.00  0.00    +0.166 C 
BRANCH  43  44
ATOM     44  CB  SER A   7       4.885 -15.712 -13.876  0.00  0.00    +0.229 C 
ATOM     45  OG  SER A   7       4.624 -16.348 -12.861  0.00  0.00    -0.286 OA
ENDBRANCH  43  44
BRANCH  43  46
ATOM     46  C   SER A   7       4.991 -13.298 -13.137  0.00  0.00    +0.165 C 
BRANCH  46  47
ATOM     47  O   SER A   7       3.711 -13.140 -13.718  0.00  0.00    -0.380 OA
ATOM     48  H   SER A   7       3.810 -12.946 -14.684  0.00  0.00    +0.211 HD
ENDBRANCH  46  47
ENDBRANCH  43  46
ENDBRANCH  40  43
ENDBRANCH  38  39
BRANCH  38  49
ATOM     49  CB  TYR A   6       8.900 -14.119 -17.310  0.00  0.00    +0.055 C 
BRANCH  49  50
ATOM     50  CG  TYR A   6       9.327 -13.722 -18.701  0.00  0.00    -0.020 A 
ATOM     51  CD2 TYR A   6       9.586 -12.388 -18.996  0.00  0.00    -0.001 A 
ATOM     52  CE2 TYR A   6       9.987 -11.995 -20.272  0.00  0.00    +0.036 A 
ATOM     53  CZ  TYR A   6      10.129 -12.943 -21.269  0.00  0.00    +0.134 A 
ATOM     54  CE1 TYR A   6       9.885 -14.285 -21.014  0.00  0.00    +0.036 A 
ATOM     55  CD1 TYR A   6       9.479 -14.670 -19.712  0.00  0.00    -0.001 A 
BRANCH  53  56
ATOM     56  OH  TYR A   6      10.533 -12.517 -22.515  0.00  0.00    -0.506 OA
ATOM     57  HH  TYR A   6      10.592 -13.294 -23.125  0.00  0.00    +0.292 HD
ENDBRANCH  53  56
ENDBRANCH  49  50
ENDBRANCH  38  49
ENDBRANCH  35  38
ENDBRANCH  33  34
BRANCH  33  58
ATOM     58  CB  PHE A   5       4.724 -12.559 -20.175  0.00  0.00    +0.055 C 
BRANCH  58  59
ATOM     59  CG  PHE A   5       4.687 -13.952 -20.747  0.00  0.00    -0.020 A 
ATOM     60  CD2 PHE A   5       3.485 -14.636 -20.878  0.00  0.00    -0.004 A 
ATOM     61  CE2 PHE A   5       3.459 -15.959 -21.395  0.00  0.00    -0.000 A 
ATOM     62  CZ  PHE A   5       4.645 -16.578 -21.775  0.00  0.00    -0.000 A 
ATOM     63  CE1 PHE A   5       5.852 -15.903 -21.647  0.00  0.00    -0.000 A 
ATOM     64  CD1 PHE A   5       5.871 -14.593 -21.128  0.00  0.00    -0.004 A 
ENDBRANCH  58  59
ENDBRANCH  33  58
ENDBRANCH   3  33
TORSDOF 24
REMARK  Name = ../refined-set-2016/3d0b/3d0b_pocket.pdb
REMARK  253 active torsions:
REMARK  status: ('A' for Active; 'I' for Inactive)
REMARK    1  A    between atoms: _1  and  _3
REMARK    2  A    between atoms: _3  and  _4
REMARK    3  A    between atoms: _3  and  _6
REMARK    4  A    between atoms: _6  and  _7
REMARK    5  A    between atoms: _13  and  _15
REMARK    6  A    between atoms: _15  and  _16
REMARK    7  A    between atoms: _15  and  _18
REMARK    8  A    between atoms: _18  and  _19
REMARK    9  A    between atoms: _19  and  _20
REMARK   10  A    between atoms: _25  and  _27
REMARK   11  A    between atoms: _27  and  _28
REMARK   12  A    between atoms: _27  and  _30
REMARK   13  A    between atoms: _30  and  _31
REMARK   14  A    between atoms: _34  and  _36
REMARK   15  A    between atoms: _36  and  _37
REMARK   16  A    between atoms: _36  and  _39
REMARK   17  A    between atoms: _39  and  _40
REMARK   18  A    between atoms: _40  and  _41
REMARK   19  A    between atoms: _43  and  _45
REMARK   20  A    between atoms: _45  and  _46
REMARK   21  A    between atoms: _45  and  _48
REMARK   22  A    between atoms: _48  and  _49
REMARK   23  A    between atoms: _49  and  _50
REMARK   24  A    between atoms: _53  and  _55
REMARK   25  A    between atoms: _55  and  _56
REMARK   26  A    between atoms: _55  and  _58
REMARK   27  A    between atoms: _58  and  _59
REMARK   28  A    between atoms: _62  and  _64
REMARK   29  A    between atoms: _64  and  _65
REMARK   30  A    between atoms: _64  and  _67
REMARK   31  A    between atoms: _67  and  _68
REMARK   32  A    between atoms: _71  and  _73
REMARK   33  A    between atoms: _73  and  _74
REMARK   34  A    between atoms: _73  and  _76
REMARK   35  A    between atoms: _76  and  _77
REMARK   36  A    between atoms: _79  and  _81
REMARK   37  A    between atoms: _81  and  _82
REMARK   38  A    between atoms: _81  and  _84
REMARK   39  A    between atoms: _84  and  _85
REMARK   40  A    between atoms: _90  and  _92
REMARK   41  A    between atoms: _92  and  _93
REMARK   42  A    between atoms: _92  and  _95
REMARK   43  A    between atoms: _95  and  _96
REMARK   44  A    between atoms: _98  and  _100
REMARK   45  A    between atoms: _100  and  _101
REMARK   46  A    between atoms: _100  and  _103
REMARK   47  A    between atoms: _103  and  _104
REMARK   48  A    between atoms: _106  and  _108
REMARK   49  A    between atoms: _108  and  _109
REMARK   50  A    between atoms: _108  and  _111
REMARK   51  A    between atoms: _111  and  _112
REMARK   52  A    between atoms: _115  and  _117
REMARK   53  A    between atoms: _117  and  _118
REMARK   54  A    between atoms: _121  and  _123
REMARK   55  A    between atoms: _123  and  _124
REMARK   56  A    between atoms: _123  and  _126
REMARK   57  A    between atoms: _126  and  _127
REMARK   58  A    between atoms: _130  and  _132
REMARK   59  A    between atoms: _132  and  _133
REMARK   60  A    between atoms: _132  and  _135
REMARK   61  A    between atoms: _135  and  _136
REMARK   62  A    between atoms: _139  and  _141
REMARK   63  A    between atoms: _141  and  _142
REMARK   64  A    between atoms: _141  and  _144
REMARK   65  A    between atoms: _144  and  _145
REMARK   66  A    between atoms: _145  and  _146
REMARK   67  A    between atoms: _146  and  _147
REMARK   68  A    between atoms: _147  and  _148
REMARK   69  A    between atoms: _152  and  _154
REMARK   70  A    between atoms: _154  and  _155
REMARK   71  A    between atoms: _154  and  _157
REMARK   72  A    between atoms: _157  and  _158
REMARK   73  A    between atoms: _161  and  _163
REMARK   74  A    between atoms: _163  and  _164
REMARK   75  A    between atoms: _163  and  _166
REMARK   76  A    between atoms: _166  and  _167
REMARK   77  A    between atoms: _170  and  _172
REMARK   78  A    between atoms: _172  and  _173
REMARK   79  A    between atoms: _172  and  _175
REMARK   80  A    between atoms: _175  and  _176
REMARK   81  A    between atoms: _179  and  _181
REMARK   82  A    between atoms: _181  and  _182
REMARK   83  A    between atoms: _181  and  _184
REMARK   84  A    between atoms: _187  and  _189
REMARK   85  A    between atoms: _189  and  _190
REMARK   86  A    between atoms: _189  and  _192
REMARK   87  A    between atoms: _192  and  _193
REMARK   88  A    between atoms: _196  and  _198
REMARK   89  A    between atoms: _198  and  _199
REMARK   90  A    between atoms: _198  and  _201
REMARK   91  A    between atoms: _201  and  _202
REMARK   92  A    between atoms: _205  and  _207
REMARK   93  A    between atoms: _207  and  _208
REMARK   94  A    between atoms: _210  and  _212
REMARK   95  A    between atoms: _212  and  _213
REMARK   96  A    between atoms: _212  and  _215
REMARK   97  A    between atoms: _215  and  _216
REMARK   98  A    between atoms: _219  and  _221
REMARK   99  A    between atoms: _221  and  _222
REMARK  100  A    between atoms: _224  and  _226
REMARK  101  A    between atoms: _226  and  _227
REMARK  102  A    between atoms: _226  and  _229
REMARK  103  A    between atoms: _229  and  _230
REMARK  104  A    between atoms: _230  and  _231
REMARK  105  A    between atoms: _233  and  _235
REMARK  106  A    between atoms: _235  and  _236
REMARK  107  A    between atoms: _235  and  _238
REMARK  108  A    between atoms: _238  and  _239
REMARK  109  A    between atoms: _242  and  _244
REMARK  110  A    between atoms: _244  and  _245
REMARK  111  A    between atoms: _244  and  _247
REMARK  112  A    between atoms: _247  and  _248
REMARK  113  A    between atoms: _251  and  _253
REMARK  114  A    between atoms: _253  and  _254
REMARK  115  A    between atoms: _253  and  _256
REMARK  116  A    between atoms: _256  and  _257
REMARK  117  A    between atoms: _260  and  _262
REMARK  118  A    between atoms: _262  and  _263
REMARK  119  A    between atoms: _262  and  _265
REMARK  120  A    between atoms: _265  and  _266
REMARK  121  A    between atoms: _269  and  _271
REMARK  122  A    between atoms: _271  and  _272
REMARK  123  A    between atoms: _271  and  _274
REMARK  124  A    between atoms: _274  and  _275
REMARK  125  A    between atoms: _280  and  _282
REMARK  126  A    between atoms: _282  and  _283
REMARK  127  A    between atoms: _282  and  _285
REMARK  128  A    between atoms: _285  and  _286
REMARK  129  A    between atoms: _291  and  _293
REMARK  130  A    between atoms: _293  and  _294
REMARK  131  A    between atoms: _293  and  _296
REMARK  132  A    between atoms: _296  and  _297
REMARK  133  A    between atoms: _300  and  _302
REMARK  134  A    between atoms: _302  and  _303
REMARK  135  A    between atoms: _305  and  _307
REMARK  136  A    between atoms: _307  and  _308
REMARK  137  A    between atoms: _307  and  _310
REMARK  138  A    between atoms: _310  and  _311
REMARK  139  A    between atoms: _314  and  _316
REMARK  140  A    between atoms: _316  and  _317
REMARK  141  A    between atoms: _316  and  _319
REMARK  142  A    between atoms: _319  and  _320
REMARK  143  A    between atoms: _323  and  _325
REMARK  144  A    between atoms: _325  and  _326
REMARK  145  A    between atoms: _329  and  _331
REMARK  146  A    between atoms: _331  and  _332
REMARK  147  A    between atoms: _331  and  _334
REMARK  148  A    between atoms: _334  and  _335
REMARK  149  A    between atoms: _335  and  _336
REMARK  150  A    between atoms: _336  and  _337
REMARK  151  A    between atoms: _337  and  _338
REMARK  152  A    between atoms: _342  and  _344
REMARK  153  A    between atoms: _344  and  _345
REMARK  154  A    between atoms: _344  and  _347
REMARK  155  A    between atoms: _347  and  _348
REMARK  156  A    between atoms: _351  and  _353
REMARK  157  A    between atoms: _353  and  _354
REMARK  158  A    between atoms: _353  and  _356
REMARK  159  A    between atoms: _356  and  _357
REMARK  160  A    between atoms: _363  and  _365
REMARK  161  A    between atoms: _365  and  _366
REMARK  162  A    between atoms: _368  and  _370
REMARK  163  A    between atoms: _370  and  _371
REMARK  164  A    between atoms: _370  and  _373
REMARK  165  A    between atoms: _376  and  _378
REMARK  166  A    between atoms: _378  and  _379
REMARK  167  A    between atoms: _381  and  _383
REMARK  168  A    between atoms: _383  and  _384
REMARK  169  A    between atoms: _383  and  _386
REMARK  170  A    between atoms: _386  and  _387
REMARK  171  A    between atoms: _393  and  _395
REMARK  172  A    between atoms: _395  and  _396
REMARK  173  A    between atoms: _395  and  _398
REMARK  174  A    between atoms: _398  and  _399
REMARK  175  A    between atoms: _404  and  _405
REMARK  176  A    between atoms: _407  and  _409
REMARK  177  A    between atoms: _409  and  _410
REMARK  178  A    between atoms: _409  and  _412
REMARK  179  A    between atoms: _412  and  _413
REMARK  180  A    between atoms: _415  and  _417
REMARK  181  A    between atoms: _417  and  _418
REMARK  182  A    between atoms: _417  and  _420
REMARK  183  A    between atoms: _420  and  _421
REMARK  184  A    between atoms: _426  and  _427
REMARK  185  A    between atoms: _429  and  _431
REMARK  186  A    between atoms: _431  and  _432
REMARK  187  A    between atoms: _431  and  _434
REMARK  188  A    between atoms: _437  and  _439
REMARK  189  A    between atoms: _439  and  _440
REMARK  190  A    between atoms: _439  and  _442
REMARK  191  A    between atoms: _442  and  _443
REMARK  192  A    between atoms: _446  and  _448
REMARK  193  A    between atoms: _448  and  _449
REMARK  194  A    between atoms: _448  and  _451
REMARK  195  A    between atoms: _454  and  _456
REMARK  196  A    between atoms: _456  and  _457
REMARK  197  A    between atoms: _456  and  _459
REMARK  198  A    between atoms: _459  and  _460
REMARK  199  A    between atoms: _463  and  _465
REMARK  200  A    between atoms: _465  and  _466
REMARK  201  A    between atoms: _465  and  _468
REMARK  202  A    between atoms: _468  and  _469
REMARK  203  A    between atoms: _472  and  _474
REMARK  204  A    between atoms: _474  and  _475
REMARK  205  A    between atoms: _474  and  _477
REMARK  206  A    between atoms: _477  and  _478
REMARK  207  A    between atoms: _478  and  _479
REMARK  208  A    between atoms: _479  and  _480
REMARK  209  A    between atoms: _480  and  _481
REMARK  210  A    between atoms: _485  and  _487
REMARK  211  A    between atoms: _487  and  _488
REMARK  212  A    between atoms: _487  and  _490
REMARK  213  A    between atoms: _490  and  _491
REMARK  214  A    between atoms: _496  and  _498
REMARK  215  A    between atoms: _498  and  _499
REMARK  216  A    between atoms: _498  and  _501
REMARK  217  A    between atoms: _501  and  _502
REMARK  218  A    between atoms: _512  and  _514
REMARK  219  A    between atoms: _514  and  _515
REMARK  220  A    between atoms: _514  and  _517
REMARK  221  A    between atoms: _517  and  _518
REMARK  222  A    between atoms: _518  and  _519
REMARK  223  A    between atoms: _522  and  _524
REMARK  224  A    between atoms: _524  and  _525
REMARK  225  A    between atoms: _524  and  _527
REMARK  226  A    between atoms: _527  and  _528
REMARK  227  A    between atoms: _530  and  _532
REMARK  228  A    between atoms: _532  and  _533
REMARK  229  A    between atoms: _532  and  _535
REMARK  230  A    between atoms: _535  and  _536
REMARK  231  A    between atoms: _542  and  _544
REMARK  232  A    between atoms: _544  and  _545
REMARK  233  A    between atoms: _544  and  _547
REMARK  234  A    between atoms: _547  and  _548
REMARK  235  A    between atoms: _551  and  _553
REMARK  236  A    between atoms: _553  and  _554
REMARK  237  A    between atoms: _553  and  _556
REMARK  238  A    between atoms: _559  and  _561
REMARK  239  A    between atoms: _561  and  _562
REMARK  240  A    between atoms: _564  and  _566
REMARK  241  A    between atoms: _566  and  _567
REMARK  242  A    between atoms: _566  and  _569
REMARK  243  A    between atoms: _569  and  _570
REMARK  244  A    between atoms: _573  and  _575
REMARK  245  A    between atoms: _575  and  _576
REMARK  246  A    between atoms: _575  and  _578
REMARK  247  A    between atoms: _578  and  _579
REMARK  248  A    between atoms: _579  and  _580
REMARK  249  A    between atoms: _580  and  _581
REMARK  250  A    between atoms: _581  and  _582
REMARK  251  A    between atoms: _586  and  _588
REMARK  252  A    between atoms: _588  and  _589
REMARK  253  A    between atoms: _588  and  _591
REMARK                            x       y       z     vdW  Elec       q    Type
REMARK                         _______ _______ _______ _____ _____    ______ ____
ROOT
ATOM      1  CG  TYR A   1       7.931 -19.837 -16.371  0.00  0.00    -0.020 A 
ATOM      2  CD2 TYR A   1       7.961 -21.173 -16.819  0.00  0.00    -0.001 A 
ATOM      3  CE2 TYR A   1       7.789 -21.480 -18.171  0.00  0.00    +0.036 A 
ATOM      4  CZ  TYR A   1       7.562 -20.458 -19.086  0.00  0.00    +0.134 A 
ATOM      5  CE1 TYR A   1       7.516 -19.128 -18.661  0.00  0.00    +0.036 A 
ATOM      6  CD1 TYR A   1       7.690 -18.829 -17.304  0.00  0.00    -0.001 A 
ENDROOT
BRANCH   4   7
ATOM      7  OH  TYR A   1       7.375 -20.755 -20.421  0.00  0.00    -0.506 OA
ATOM      8  HH  TYR A   1       7.438 -21.734 -20.552  0.00  0.00    +0.292 HD
ENDBRANCH   4   7
BRANCH   1   9
ATOM      9  CB  TYR A   1       8.080 -19.508 -14.906  0.00  0.00    +0.051 C 
BRANCH   9  10
ATOM     10  CA  TYR A   1       6.702 -19.539 -14.232  0.00  0.00    +0.137 C 
BRANCH  10  11
ATOM     11  N   TYR A   1       5.840 -18.447 -14.746  0.00  0.00    -0.239 NA
ATOM     12  H   TYR A   1       6.283 -17.600 -15.156  0.00  0.00    +0.142 HD
ENDBRANCH  10  11
BRANCH  10  13
ATOM     13  C   TYR A   1       6.785 -19.665 -12.706  0.00  0.00    +0.224 C 
ATOM     14  O   TYR A   1       7.398 -20.607 -12.177  0.00  0.00    -0.287 OA
ENDBRANCH  10  13
ENDBRANCH   9  10
ENDBRANCH   1   9
TORSDOF 5
REMARK  Name = ../refined-set-2016/3d0b/3d0b_pocket.pdb
REMARK  253 active torsions:
REMARK  status: ('A' for Active; 'I' for Inactive)
REMARK    1  A    between atoms: _1  and  _3
REMARK    2  A    between atoms: _3  and  _4
REMARK    3  A    between atoms: _3  and  _6
REMARK    4  A    between atoms: _6  and  _7
REMARK    5  A    between atoms: _13  and  _15
REMARK    6  A    between atoms: _15  and  _16
REMARK    7  A    between atoms: _15  and  _18
REMARK    8  A    between atoms: _18  and  _19
REMARK    9  A    between atoms: _19  and  _20
REMARK   10  A    between atoms: _25  and  _27
REMARK   11  A    between atoms: _27  and  _28
REMARK   12  A    between atoms: _27  and  _30
REMARK   13  A    between atoms: _30  and  _31
REMARK   14  A    between atoms: _34  and  _36
REMARK   15  A    between atoms: _36  and  _37
REMARK   16  A    between atoms: _36  and  _39
REMARK   17  A    between atoms: _39  and  _40
REMARK   18  A    between atoms: _40  and  _41
REMARK   19  A    between atoms: _43  and  _45
REMARK   20  A    between atoms: _45  and  _46
REMARK   21  A    between atoms: _45  and  _48
REMARK   22  A    between atoms: _48  and  _49
REMARK   23  A    between atoms: _49  and  _50
REMARK   24  A    between atoms: _53  and  _55
REMARK   25  A    between atoms: _55  and  _56
REMARK   26  A    between atoms: _55  and  _58
REMARK   27  A    between atoms: _58  and  _59
REMARK   28  A    between atoms: _62  and  _64
REMARK   29  A    between atoms: _64  and  _65
REMARK   30  A    between atoms: _64  and  _67
REMARK   31  A    between atoms: _67  and  _68
REMARK   32  A    between atoms: _71  and  _73
REMARK   33  A    between atoms: _73  and  _74
REMARK   34  A    between atoms: _73  and  _76
REMARK   35  A    between atoms: _76  and  _77
REMARK   36  A    between atoms: _79  and  _81
REMARK   37  A    between atoms: _81  and  _82
REMARK   38  A    between atoms: _81  and  _84
REMARK   39  A    between atoms: _84  and  _85
REMARK   40  A    between atoms: _90  and  _92
REMARK   41  A    between atoms: _92  and  _93
REMARK   42  A    between atoms: _92  and  _95
REMARK   43  A    between atoms: _95  and  _96
REMARK   44  A    between atoms: _98  and  _100
REMARK   45  A    between atoms: _100  and  _101
REMARK   46  A    between atoms: _100  and  _103
REMARK   47  A    between atoms: _103  and  _104
REMARK   48  A    between atoms: _106  and  _108
REMARK   49  A    between atoms: _108  and  _109
REMARK   50  A    between atoms: _108  and  _111
REMARK   51  A    between atoms: _111  and  _112
REMARK   52  A    between atoms: _115  and  _117
REMARK   53  A    between atoms: _117  and  _118
REMARK   54  A    between atoms: _121  and  _123
REMARK   55  A    between atoms: _123  and  _124
REMARK   56  A    between atoms: _123  and  _126
REMARK   57  A    between atoms: _126  and  _127
REMARK   58  A    between atoms: _130  and  _132
REMARK   59  A    between atoms: _132  and  _133
REMARK   60  A    between atoms: _132  and  _135
REMARK   61  A    between atoms: _135  and  _136
REMARK   62  A    between atoms: _139  and  _141
REMARK   63  A    between atoms: _141  and  _142
REMARK   64  A    between atoms: _141  and  _144
REMARK   65  A    between atoms: _144  and  _145
REMARK   66  A    between atoms: _145  and  _146
REMARK   67  A    between atoms: _146  and  _147
REMARK   68  A    between atoms: _147  and  _148
REMARK   69  A    between atoms: _152  and  _154
REMARK   70  A    between atoms: _154  and  _155
REMARK   71  A    between atoms: _154  and  _157
REMARK   72  A    between atoms: _157  and  _158
REMARK   73  A    between atoms: _161  and  _163
REMARK   74  A    between atoms: _163  and  _164
REMARK   75  A    between atoms: _163  and  _166
REMARK   76  A    between atoms: _166  and  _167
REMARK   77  A    between atoms: _170  and  _172
REMARK   78  A    between atoms: _172  and  _173
REMARK   79  A    between atoms: _172  and  _175
REMARK   80  A    between atoms: _175  and  _176
REMARK   81  A    between atoms: _179  and  _181
REMARK   82  A    between atoms: _181  and  _182
REMARK   83  A    between atoms: _181  and  _184
REMARK   84  A    between atoms: _187  and  _189
REMARK   85  A    between atoms: _189  and  _190
REMARK   86  A    between atoms: _189  and  _192
REMARK   87  A    between atoms: _192  and  _193
REMARK   88  A    between atoms: _196  and  _198
REMARK   89  A    between atoms: _198  and  _199
REMARK   90  A    between atoms: _198  and  _201
REMARK   91  A    between atoms: _201  and  _202
REMARK   92  A    between atoms: _205  and  _207
REMARK   93  A    between atoms: _207  and  _208
REMARK   94  A    between atoms: _210  and  _212
REMARK   95  A    between atoms: _212  and  _213
REMARK   96  A    between atoms: _212  and  _215
REMARK   97  A    between atoms: _215  and  _216
REMARK   98  A    between atoms: _219  and  _221
REMARK   99  A    between atoms: _221  and  _222
REMARK  100  A    between atoms: _224  and  _226
REMARK  101  A    between atoms: _226  and  _227
REMARK  102  A    between atoms: _226  and  _229
REMARK  103  A    between atoms: _229  and  _230
REMARK  104  A    between atoms: _230  and  _231
REMARK  105  A    between atoms: _233  and  _235
REMARK  106  A    between atoms: _235  and  _236
REMARK  107  A    between atoms: _235  and  _238
REMARK  108  A    between atoms: _238  and  _239
REMARK  109  A    between atoms: _242  and  _244
REMARK  110  A    between atoms: _244  and  _245
REMARK  111  A    between atoms: _244  and  _247
REMARK  112  A    between atoms: _247  and  _248
REMARK  113  A    between atoms: _251  and  _253
REMARK  114  A    between atoms: _253  and  _254
REMARK  115  A    between atoms: _253  and  _256
REMARK  116  A    between atoms: _256  and  _257
REMARK  117  A    between atoms: _260  and  _262
REMARK  118  A    between atoms: _262  and  _263
REMARK  119  A    between atoms: _262  and  _265
REMARK  120  A    between atoms: _265  and  _266
REMARK  121  A    between atoms: _269  and  _271
REMARK  122  A    between atoms: _271  and  _272
REMARK  123  A    between atoms: _271  and  _274
REMARK  124  A    between atoms: _274  and  _275
REMARK  125  A    between atoms: _280  and  _282
REMARK  126  A    between atoms: _282  and  _283
REMARK  127  A    between atoms: _282  and  _285
REMARK  128  A    between atoms: _285  and  _286
REMARK  129  A    between atoms: _291  and  _293
REMARK  130  A    between atoms: _293  and  _294
REMARK  131  A    between atoms: _293  and  _296
REMARK  132  A    between atoms: _296  and  _297
REMARK  133  A    between atoms: _300  and  _302
REMARK  134  A    between atoms: _302  and  _303
REMARK  135  A    between atoms: _305  and  _307
REMARK  136  A    between atoms: _307  and  _308
REMARK  137  A    between atoms: _307  and  _310
REMARK  138  A    between atoms: _310  and  _311
REMARK  139  A    between atoms: _314  and  _316
REMARK  140  A    between atoms: _316  and  _317
REMARK  141  A    between atoms: _316  and  _319
REMARK  142  A    between atoms: _319  and  _320
REMARK  143  A    between atoms: _323  and  _325
REMARK  144  A    between atoms: _325  and  _326
REMARK  145  A    between atoms: _329  and  _331
REMARK  146  A    between atoms: _331  and  _332
REMARK  147  A    between atoms: _331  and  _334
REMARK  148  A    between atoms: _334  and  _335
REMARK  149  A    between atoms: _335  and  _336
REMARK  150  A    between atoms: _336  and  _337
REMARK  151  A    between atoms: _337  and  _338
REMARK  152  A    between atoms: _342  and  _344
REMARK  153  A    between atoms: _344  and  _345
REMARK  154  A    between atoms: _344  and  _347
REMARK  155  A    between atoms: _347  and  _348
REMARK  156  A    between atoms: _351  and  _353
REMARK  157  A    between atoms: _353  and  _354
REMARK  158  A    between atoms: _353  and  _356
REMARK  159  A    between atoms: _356  and  _357
REMARK  160  A    between atoms: _363  and  _365
REMARK  161  A    between atoms: _365  and  _366
REMARK  162  A    between atoms: _368  and  _370
REMARK  163  A    between atoms: _370  and  _371
REMARK  164  A    between atoms: _370  and  _373
REMARK  165  A    between atoms: _376  and  _378
REMARK  166  A    between atoms: _378  and  _379
REMARK  167  A    between atoms: _381  and  _383
REMARK  168  A    between atoms: _383  and  _384
REMARK  169  A    between atoms: _383  and  _386
REMARK  170  A    between atoms: _386  and  _387
REMARK  171  A    between atoms: _393  and  _395
REMARK  172  A    between atoms: _395  and  _396
REMARK  173  A    between atoms: _395  and  _398
REMARK  174  A    between atoms: _398  and  _399
REMARK  175  A    between atoms: _404  and  _405
REMARK  176  A    between atoms: _407  and  _409
REMARK  177  A    between atoms: _409  and  _410
REMARK  178  A    between atoms: _409  and  _412
REMARK  179  A    between atoms: _412  and  _413
REMARK  180  A    between atoms: _415  and  _417
REMARK  181  A    between atoms: _417  and  _418
REMARK  182  A    between atoms: _417  and  _420
REMARK  183  A    between atoms: _420  and  _421
REMARK  184  A    between atoms: _426  and  _427
REMARK  185  A    between atoms: _429  and  _431
REMARK  186  A    between atoms: _431  and  _432
REMARK  187  A    between atoms: _431  and  _434
REMARK  188  A    between atoms: _437  and  _439
REMARK  189  A    between atoms: _439  and  _440
REMARK  190  A    between atoms: _439  and  _442
REMARK  191  A    between atoms: _442  and  _443
REMARK  192  A    between atoms: _446  and  _448
REMARK  193  A    between atoms: _448  and  _449
REMARK  194  A    between atoms: _448  and  _451
REMARK  195  A    between atoms: _454  and  _456
REMARK  196  A    between atoms: _456  and  _457
REMARK  197  A    between atoms: _456  and  _459
REMARK  198  A    between atoms: _459  and  _460
REMARK  199  A    between atoms: _463  and  _465
REMARK  200  A    between atoms: _465  and  _466
REMARK  201  A    between atoms: _465  and  _468
REMARK  202  A    between atoms: _468  and  _469
REMARK  203  A    between atoms: _472  and  _474
REMARK  204  A    between atoms: _474  and  _475
REMARK  205  A    between atoms: _474  and  _477
REMARK  206  A    between atoms: _477  and  _478
REMARK  207  A    between atoms: _478  and  _479
REMARK  208  A    between atoms: _479  and  _480
REMARK  209  A    between atoms: _480  and  _481
REMARK  210  A    between atoms: _485  and  _487
REMARK  211  A    between atoms: _487  and  _488
REMARK  212  A    between atoms: _487  and  _490
REMARK  213  A    between atoms: _490  and  _491
REMARK  214  A    between atoms: _496  and  _498
REMARK  215  A    between atoms: _498  and  _499
REMARK  216  A    between atoms: _498  and  _501
REMARK  217  A    between atoms: _501  and  _502
REMARK  218  A    between atoms: _512  and  _514
REMARK  219  A    between atoms: _514  and  _515
REMARK  220  A    between atoms: _514  and  _517
REMARK  221  A    between atoms: _517  and  _518
REMARK  222  A    between atoms: _518  and  _519
REMARK  223  A    between atoms: _522  and  _524
REMARK  224  A    between atoms: _524  and  _525
REMARK  225  A    between atoms: _524  and  _527
REMARK  226  A    between atoms: _527  and  _528
REMARK  227  A    between atoms: _530  and  _532
REMARK  228  A    between atoms: _532  and  _533
REMARK  229  A    between atoms: _532  and  _535
REMARK  230  A    between atoms: _535  and  _536
REMARK  231  A    between atoms: _542  and  _544
REMARK  232  A    between atoms: _544  and  _545
REMARK  233  A    between atoms: _544  and  _547
REMARK  234  A    between atoms: _547  and  _548
REMARK  235  A    between atoms: _551  and  _553
REMARK  236  A    between atoms: _553  and  _554
REMARK  237  A    between atoms: _553  and  _556
REMARK  238  A    between atoms: _559  and  _561
REMARK  239  A    between atoms: _561  and  _562
REMARK  240  A    between atoms: _564  and  _566
REMARK  241  A    between atoms: _566  and  _567
REMARK  242  A    between atoms: _566  and  _569
REMARK  243  A    between atoms: _569  and  _570
REMARK  244  A    between atoms: _573  and  _575
REMARK  245  A    between atoms: _575  and  _576
REMARK  246  A    between atoms: _575  and  _578
REMARK  247  A    between atoms: _578  and  _579
REMARK  248  A    between atoms: _579  and  _580
REMARK  249  A    between atoms: _580  and  _581
REMARK  250  A    between atoms: _581  and  _582
REMARK  251  A    between atoms: _586  and  _588
REMARK  252  A    between atoms: _588  and  _589
REMARK  253  A    between atoms: _588  and  _591
REMARK                            x       y       z     vdW  Elec       q    Type
REMARK                         _______ _______ _______ _____ _____    ______ ____
ROOT
ATOM      1  C   ILE A   4      -2.253 -18.757 -29.051  0.00  0.00    +0.241 C 
ATOM      2  O   ILE A   4      -2.906 -18.100 -28.249  0.00  0.00    -0.273 OA
ATOM      3  N   THR A   5      -1.927 -18.309 -30.256  0.00  0.00    -0.295 N 
ATOM      4  H   THR A   5      -1.468 -18.941 -30.943  0.00  0.00    +0.150 HD
ENDROOT
BRANCH   3   5
ATOM      5  CA  THR A   5      -2.217 -16.921 -30.612  0.00  0.00    +0.176 C 
BRANCH   5   6
ATOM      6  C   THR A   5      -2.514 -16.749 -32.086  0.00  0.00    +0.243 C 
ATOM      7  N   LYS A   6      -3.388 -15.792 -32.371  0.00  0.00    -0.297 N 
ATOM      8  H   LYS A   6      -3.791 -15.231 -31.593  0.00  0.00    +0.150 HD
ATOM      9  O   THR A   5      -1.994 -17.482 -32.939  0.00  0.00    -0.273 OA
BRANCH   7  10
ATOM     10  CA  LYS A   6      -3.800 -15.502 -33.730  0.00  0.00    +0.149 C 
BRANCH  10  11
ATOM     11  C   LYS A   6      -3.925 -13.994 -33.899  0.00  0.00    +0.241 C 
ATOM     12  O   LYS A   6      -4.761 -13.375 -33.244  0.00  0.00    -0.273 OA
ATOM     13  N   HIS A   7      -3.076 -13.437 -34.759  0.00  0.00    -0.298 N 
ATOM     14  H   HIS A   7      -2.347 -14.044 -35.184  0.00  0.00    +0.150 HD
BRANCH  13  15
ATOM     15  CA  HIS A   7      -3.102 -12.030 -35.144  0.00  0.00    +0.143 C 
BRANCH  15  16
ATOM     16  C   HIS A   7      -3.754 -11.953 -36.524  0.00  0.00    +0.227 C 
ATOM     17  O   HIS A   7      -3.653 -12.901 -37.309  0.00  0.00    -0.286 OA
ENDBRANCH  15  16
BRANCH  15  18
ATOM     18  CB  HIS A   7      -1.662 -11.514 -35.203  0.00  0.00    +0.075 C 
BRANCH  18  19
ATOM     19  CG  HIS A   7      -1.537 -10.029 -35.372  0.00  0.00    +0.082 A 
ATOM     20  CD2 HIS A   7      -1.225  -9.059 -34.481  0.00  0.00    +0.115 A 
ATOM     21  NE2 HIS A   7      -1.210  -7.867 -35.164  0.00  0.00    -0.221 NA
ATOM     22  CE1 HIS A   7      -1.496  -8.098 -36.433  0.00  0.00    +0.199 A 
ATOM     23  ND1 HIS A   7      -1.681  -9.399 -36.587  0.00  0.00    -0.227 NA
ENDBRANCH  18  19
ENDBRANCH  15  18
ENDBRANCH  13  15
ENDBRANCH  10  11
BRANCH  10  24
ATOM     24  CB  LYS A   6      -5.145 -16.176 -34.032  0.00  0.00    +0.029 C 
BRANCH  24  25
ATOM     25  CG  LYS A   6      -5.720 -15.852 -35.424  0.00  0.00    +0.000 C 
BRANCH  25  26
ATOM     26  CD  LYS A   6      -4.912 -16.492 -36.549  0.00  0.00    -0.024 C 
BRANCH  26  27
ATOM     27  CE  LYS A   6      -5.552 -16.227 -37.911  0.00  0.00    -0.086 C 
BRANCH  27  28
ATOM     28  NZ  LYS A   6      -5.521 -14.786 -38.296  0.00  0.00    +0.380 N 
ATOM     29  HZ1 LYS A   6      -6.039 -14.228 -37.588  0.00  0.00    -0.089 HD
ATOM     30  HZ2 LYS A   6      -4.534 -14.461 -38.340  0.00  0.00    -0.089 HD
ATOM     31  HZ3 LYS A   6      -5.968 -14.668 -39.227  0.00  0.00    -0.089 HD
ENDBRANCH  27  28
ENDBRANCH  26  27
ENDBRANCH  25  26
ENDBRANCH  24  25
ENDBRANCH  10  24
ENDBRANCH   7  10
ENDBRANCH   5   6
BRANCH   5  32
ATOM     32  CB  THR A   5      -1.078 -15.969 -30.134  0.00  0.00    +0.137 C 
ATOM     33  CG2 THR A   5       0.220 -16.201 -30.937  0.00  0.00    +0.034 C 
BRANCH  32  34
ATOM     34  OG1 THR A   5      -1.498 -14.596 -30.225  0.00  0.00    -0.382 OA
ATOM     35  HG1 THR A   5      -2.295 -14.457 -29.654  0.00  0.00    +0.210 HD
ENDBRANCH  32  34
ENDBRANCH   5  32
ENDBRANCH   3   5
BRANCH   1  36
ATOM     36  CA  ILE A   4      -1.781 -20.142 -28.685  0.00  0.00    +0.149 C 
BRANCH  36  38
ATOM     37  C   VAL A   3       0.166 -19.951 -27.220  0.00  0.00    +0.241 C 
ATOM     38  N   ILE A   4      -1.157 -20.029 -27.358  0.00  0.00    -0.297 N 
ATOM     39  H   ILE A   4      -1.760 -20.010 -26.511  0.00  0.00    +0.150 HD
ATOM     40  O   VAL A   3       0.959 -20.085 -28.162  0.00  0.00    -0.273 OA
BRANCH  37  41
ATOM     41  CA  VAL A   3       0.682 -19.727 -25.802  0.00  0.00    +0.149 C 
BRANCH  41  44
ATOM     42  C   THR A   2       0.976 -21.599 -24.302  0.00  0.00    +0.243 C 
ATOM     43  O   THR A   2      -0.027 -21.295 -23.654  0.00  0.00    -0.273 OA
ATOM     44  N   VAL A   3       1.379 -20.929 -25.366  0.00  0.00    -0.297 N 
ATOM     45  H   VAL A   3       2.206 -21.264 -25.900  0.00  0.00    +0.150 HD
BRANCH  42  46
ATOM     46  CA  THR A   2       1.807 -22.813 -23.925  0.00  0.00    +0.176 C 
BRANCH  46  48
ATOM     47  C   VAL A   1       3.376 -22.598 -22.087  0.00  0.00    +0.238 C 
ATOM     48  N   THR A   2       2.126 -22.708 -22.523  0.00  0.00    -0.295 N 
ATOM     49  H   THR A   2       1.351 -22.719 -21.829  0.00  0.00    +0.150 HD
ATOM     50  O   VAL A   1       4.369 -22.668 -22.822  0.00  0.00    -0.274 OA
BRANCH  47  51
ATOM     51  CA  VAL A   1       3.528 -22.420 -20.597  0.00  0.00    +0.145 C 
BRANCH  51  52
ATOM     52  CB  VAL A   1       3.900 -20.971 -20.226  0.00  0.00    +0.025 C 
ATOM     53  CG2 VAL A   1       4.002 -20.825 -18.676  0.00  0.00    +0.002 C 
ATOM     54  CG1 VAL A   1       2.866 -19.998 -20.789  0.00  0.00    +0.002 C 
ENDBRANCH  51  52
BRANCH  51  55
ATOM     55  N   VAL A   1       4.523 -23.377 -20.123  0.00  0.00    -0.238 NA
ATOM     56  H   VAL A   1       5.476 -23.379 -20.539  0.00  0.00    +0.142 HD
ENDBRANCH  51  55
ENDBRANCH  47  51
ENDBRANCH  46  48
BRANCH  46  57
ATOM     57  CB  THR A   2       1.012 -24.100 -24.263  0.00  0.00    +0.137 C 
ATOM     58  CG2 THR A   2       0.907 -24.287 -25.774  0.00  0.00    +0.034 C 
BRANCH  57  59
ATOM     59  OG1 THR A   2       1.672 -25.233 -23.695  0.00  0.00    -0.382 OA
ATOM     60  HG1 THR A   2       2.586 -25.302 -24.068  0.00  0.00    +0.210 HD
ENDBRANCH  57  59
ENDBRANCH  46  57
ENDBRANCH  42  46
ENDBRANCH  41  44
BRANCH  41  61
ATOM     61  CB  VAL A   3       1.602 -18.475 -25.711  0.00  0.00    +0.027 C 
ATOM     62  CG2 VAL A   3       2.085 -18.259 -24.278  0.00  0.00    +0.002 C 
ATOM     63  CG1 VAL A   3       0.884 -17.232 -26.229  0.00  0.00    +0.002 C 
ENDBRANCH  41  61
ENDBRANCH  37  41
ENDBRANCH  36  38
BRANCH  36  64
ATOM     64  CB  ILE A   4      -3.009 -21.101 -28.703  0.00  0.00    +0.027 C 
ATOM     65  CG2 ILE A   4      -3.453 -21.381 -30.145  0.00  0.00    +0.002 C 
BRANCH  64  66
ATOM     66  CG1 ILE A   4      -2.715 -22.408 -27.945  0.00  0.00    +0.002 C 
ATOM     67  CD1 ILE A   4      -1.667 -23.251 -28.559  0.00  0.00    +0.000 C 
ENDBRANCH  64  66
ENDBRANCH  36  64
ENDBRANCH   1  36
TORSDOF 29
REMARK  Name = ../refined-set-2016/3d0b/3d0b_pocket.pdb
REMARK  253 active torsions:
REMARK  status: ('A' for Active; 'I' for Inactive)
REMARK    1  A    between atoms: _1  and  _3
REMARK    2  A    between atoms: _3  and  _4
REMARK    3  A    between atoms: _3  and  _6
REMARK    4  A    between atoms: _6  and  _7
REMARK    5  A    between atoms: _13  and  _15
REMARK    6  A    between atoms: _15  and  _16
REMARK    7  A    between atoms: _15  and  _18
REMARK    8  A    between atoms: _18  and  _19
REMARK    9  A    between atoms: _19  and  _20
REMARK   10  A    between atoms: _25  and  _27
REMARK   11  A    between atoms: _27  and  _28
REMARK   12  A    between atoms: _27  and  _30
REMARK   13  A    between atoms: _30  and  _31
REMARK   14  A    between atoms: _34  and  _36
REMARK   15  A    between atoms: _36  and  _37
REMARK   16  A    between atoms: _36  and  _39
REMARK   17  A    between atoms: _39  and  _40
REMARK   18  A    between atoms: _40  and  _41
REMARK   19  A    between atoms: _43  and  _45
REMARK   20  A    between atoms: _45  and  _46
REMARK   21  A    between atoms: _45  and  _48
REMARK   22  A    between atoms: _48  and  _49
REMARK   23  A    between atoms: _49  and  _50
REMARK   24  A    between atoms: _53  and  _55
REMARK   25  A    between atoms: _55  and  _56
REMARK   26  A    between atoms: _55  and  _58
REMARK   27  A    between atoms: _58  and  _59
REMARK   28  A    between atoms: _62  and  _64
REMARK   29  A    between atoms: _64  and  _65
REMARK   30  A    between atoms: _64  and  _67
REMARK   31  A    between atoms: _67  and  _68
REMARK   32  A    between atoms: _71  and  _73
REMARK   33  A    between atoms: _73  and  _74
REMARK   34  A    between atoms: _73  and  _76
REMARK   35  A    between atoms: _76  and  _77
REMARK   36  A    between atoms: _79  and  _81
REMARK   37  A    between atoms: _81  and  _82
REMARK   38  A    between atoms: _81  and  _84
REMARK   39  A    between atoms: _84  and  _85
REMARK   40  A    between atoms: _90  and  _92
REMARK   41  A    between atoms: _92  and  _93
REMARK   42  A    between atoms: _92  and  _95
REMARK   43  A    between atoms: _95  and  _96
REMARK   44  A    between atoms: _98  and  _100
REMARK   45  A    between atoms: _100  and  _101
REMARK   46  A    between atoms: _100  and  _103
REMARK   47  A    between atoms: _103  and  _104
REMARK   48  A    between atoms: _106  and  _108
REMARK   49  A    between atoms: _108  and  _109
REMARK   50  A    between atoms: _108  and  _111
REMARK   51  A    between atoms: _111  and  _112
REMARK   52  A    between atoms: _115  and  _117
REMARK   53  A    between atoms: _117  and  _118
REMARK   54  A    between atoms: _121  and  _123
REMARK   55  A    between atoms: _123  and  _124
REMARK   56  A    between atoms: _123  and  _126
REMARK   57  A    between atoms: _126  and  _127
REMARK   58  A    between atoms: _130  and  _132
REMARK   59  A    between atoms: _132  and  _133
REMARK   60  A    between atoms: _132  and  _135
REMARK   61  A    between atoms: _135  and  _136
REMARK   62  A    between atoms: _139  and  _141
REMARK   63  A    between atoms: _141  and  _142
REMARK   64  A    between atoms: _141  and  _144
REMARK   65  A    between atoms: _144  and  _145
REMARK   66  A    between atoms: _145  and  _146
REMARK   67  A    between atoms: _146  and  _147
REMARK   68  A    between atoms: _147  and  _148
REMARK   69  A    between atoms: _152  and  _154
REMARK   70  A    between atoms: _154  and  _155
REMARK   71  A    between atoms: _154  and  _157
REMARK   72  A    between atoms: _157  and  _158
REMARK   73  A    between atoms: _161  and  _163
REMARK   74  A    between atoms: _163  and  _164
REMARK   75  A    between atoms: _163  and  _166
REMARK   76  A    between atoms: _166  and  _167
REMARK   77  A    between atoms: _170  and  _172
REMARK   78  A    between atoms: _172  and  _173
REMARK   79  A    between atoms: _172  and  _175
REMARK   80  A    between atoms: _175  and  _176
REMARK   81  A    between atoms: _179  and  _181
REMARK   82  A    between atoms: _181  and  _182
REMARK   83  A    between atoms: _181  and  _184
REMARK   84  A    between atoms: _187  and  _189
REMARK   85  A    between atoms: _189  and  _190
REMARK   86  A    between atoms: _189  and  _192
REMARK   87  A    between atoms: _192  and  _193
REMARK   88  A    between atoms: _196  and  _198
REMARK   89  A    between atoms: _198  and  _199
REMARK   90  A    between atoms: _198  and  _201
REMARK   91  A    between atoms: _201  and  _202
REMARK   92  A    between atoms: _205  and  _207
REMARK   93  A    between atoms: _207  and  _208
REMARK   94  A    between atoms: _210  and  _212
REMARK   95  A    between atoms: _212  and  _213
REMARK   96  A    between atoms: _212  and  _215
REMARK   97  A    between atoms: _215  and  _216
REMARK   98  A    between atoms: _219  and  _221
REMARK   99  A    between atoms: _221  and  _222
REMARK  100  A    between atoms: _224  and  _226
REMARK  101  A    between atoms: _226  and  _227
REMARK  102  A    between atoms: _226  and  _229
REMARK  103  A    between atoms: _229  and  _230
REMARK  104  A    between atoms: _230  and  _231
REMARK  105  A    between atoms: _233  and  _235
REMARK  106  A    between atoms: _235  and  _236
REMARK  107  A    between atoms: _235  and  _238
REMARK  108  A    between atoms: _238  and  _239
REMARK  109  A    between atoms: _242  and  _244
REMARK  110  A    between atoms: _244  and  _245
REMARK  111  A    between atoms: _244  and  _247
REMARK  112  A    between atoms: _247  and  _248
REMARK  113  A    between atoms: _251  and  _253
REMARK  114  A    between atoms: _253  and  _254
REMARK  115  A    between atoms: _253  and  _256
REMARK  116  A    between atoms: _256  and  _257
REMARK  117  A    between atoms: _260  and  _262
REMARK  118  A    between atoms: _262  and  _263
REMARK  119  A    between atoms: _262  and  _265
REMARK  120  A    between atoms: _265  and  _266
REMARK  121  A    between atoms: _269  and  _271
REMARK  122  A    between atoms: _271  and  _272
REMARK  123  A    between atoms: _271  and  _274
REMARK  124  A    between atoms: _274  and  _275
REMARK  125  A    between atoms: _280  and  _282
REMARK  126  A    between atoms: _282  and  _283
REMARK  127  A    between atoms: _282  and  _285
REMARK  128  A    between atoms: _285  and  _286
REMARK  129  A    between atoms: _291  and  _293
REMARK  130  A    between atoms: _293  and  _294
REMARK  131  A    between atoms: _293  and  _296
REMARK  132  A    between atoms: _296  and  _297
REMARK  133  A    between atoms: _300  and  _302
REMARK  134  A    between atoms: _302  and  _303
REMARK  135  A    between atoms: _305  and  _307
REMARK  136  A    between atoms: _307  and  _308
REMARK  137  A    between atoms: _307  and  _310
REMARK  138  A    between atoms: _310  and  _311
REMARK  139  A    between atoms: _314  and  _316
REMARK  140  A    between atoms: _316  and  _317
REMARK  141  A    between atoms: _316  and  _319
REMARK  142  A    between atoms: _319  and  _320
REMARK  143  A    between atoms: _323  and  _325
REMARK  144  A    between atoms: _325  and  _326
REMARK  145  A    between atoms: _329  and  _331
REMARK  146  A    between atoms: _331  and  _332
REMARK  147  A    between atoms: _331  and  _334
REMARK  148  A    between atoms: _334  and  _335
REMARK  149  A    between atoms: _335  and  _336
REMARK  150  A    between atoms: _336  and  _337
REMARK  151  A    between atoms: _337  and  _338
REMARK  152  A    between atoms: _342  and  _344
REMARK  153  A    between atoms: _344  and  _345
REMARK  154  A    between atoms: _344  and  _347
REMARK  155  A    between atoms: _347  and  _348
REMARK  156  A    between atoms: _351  and  _353
REMARK  157  A    between atoms: _353  and  _354
REMARK  158  A    between atoms: _353  and  _356
REMARK  159  A    between atoms: _356  and  _357
REMARK  160  A    between atoms: _363  and  _365
REMARK  161  A    between atoms: _365  and  _366
REMARK  162  A    between atoms: _368  and  _370
REMARK  163  A    between atoms: _370  and  _371
REMARK  164  A    between atoms: _370  and  _373
REMARK  165  A    between atoms: _376  and  _378
REMARK  166  A    between atoms: _378  and  _379
REMARK  167  A    between atoms: _381  and  _383
REMARK  168  A    between atoms: _383  and  _384
REMARK  169  A    between atoms: _383  and  _386
REMARK  170  A    between atoms: _386  and  _387
REMARK  171  A    between atoms: _393  and  _395
REMARK  172  A    between atoms: _395  and  _396
REMARK  173  A    between atoms: _395  and  _398
REMARK  174  A    between atoms: _398  and  _399
REMARK  175  A    between atoms: _404  and  _405
REMARK  176  A    between atoms: _407  and  _409
REMARK  177  A    between atoms: _409  and  _410
REMARK  178  A    between atoms: _409  and  _412
REMARK  179  A    between atoms: _412  and  _413
REMARK  180  A    between atoms: _415  and  _417
REMARK  181  A    between atoms: _417  and  _418
REMARK  182  A    between atoms: _417  and  _420
REMARK  183  A    between atoms: _420  and  _421
REMARK  184  A    between atoms: _426  and  _427
REMARK  185  A    between atoms: _429  and  _431
REMARK  186  A    between atoms: _431  and  _432
REMARK  187  A    between atoms: _431  and  _434
REMARK  188  A    between atoms: _437  and  _439
REMARK  189  A    between atoms: _439  and  _440
REMARK  190  A    between atoms: _439  and  _442
REMARK  191  A    between atoms: _442  and  _443
REMARK  192  A    between atoms: _446  and  _448
REMARK  193  A    between atoms: _448  and  _449
REMARK  194  A    between atoms: _448  and  _451
REMARK  195  A    between atoms: _454  and  _456
REMARK  196  A    between atoms: _456  and  _457
REMARK  197  A    between atoms: _456  and  _459
REMARK  198  A    between atoms: _459  and  _460
REMARK  199  A    between atoms: _463  and  _465
REMARK  200  A    between atoms: _465  and  _466
REMARK  201  A    between atoms: _465  and  _468
REMARK  202  A    between atoms: _468  and  _469
REMARK  203  A    between atoms: _472  and  _474
REMARK  204  A    between atoms: _474  and  _475
REMARK  205  A    between atoms: _474  and  _477
REMARK  206  A    between atoms: _477  and  _478
REMARK  207  A    between atoms: _478  and  _479
REMARK  208  A    between atoms: _479  and  _480
REMARK  209  A    between atoms: _480  and  _481
REMARK  210  A    between atoms: _485  and  _487
REMARK  211  A    between atoms: _487  and  _488
REMARK  212  A    between atoms: _487  and  _490
REMARK  213  A    between atoms: _490  and  _491
REMARK  214  A    between atoms: _496  and  _498
REMARK  215  A    between atoms: _498  and  _499
REMARK  216  A    between atoms: _498  and  _501
REMARK  217  A    between atoms: _501  and  _502
REMARK  218  A    between atoms: _512  and  _514
REMARK  219  A    between atoms: _514  and  _515
REMARK  220  A    between atoms: _514  and  _517
REMARK  221  A    between atoms: _517  and  _518
REMARK  222  A    between atoms: _518  and  _519
REMARK  223  A    between atoms: _522  and  _524
REMARK  224  A    between atoms: _524  and  _525
REMARK  225  A    between atoms: _524  and  _527
REMARK  226  A    between atoms: _527  and  _528
REMARK  227  A    between atoms: _530  and  _532
REMARK  228  A    between atoms: _532  and  _533
REMARK  229  A    between atoms: _532  and  _535
REMARK  230  A    between atoms: _535  and  _536
REMARK  231  A    between atoms: _542  and  _544
REMARK  232  A    between atoms: _544  and  _545
REMARK  233  A    between atoms: _544  and  _547
REMARK  234  A    between atoms: _547  and  _548
REMARK  235  A    between atoms: _551  and  _553
REMARK  236  A    between atoms: _553  and  _554
REMARK  237  A    between atoms: _553  and  _556
REMARK  238  A    between atoms: _559  and  _561
REMARK  239  A    between atoms: _561  and  _562
REMARK  240  A    between atoms: _564  and  _566
REMARK  241  A    between atoms: _566  and  _567
REMARK  242  A    between atoms: _566  and  _569
REMARK  243  A    between atoms: _569  and  _570
REMARK  244  A    between atoms: _573  and  _575
REMARK  245  A    between atoms: _575  and  _576
REMARK  246  A    between atoms: _575  and  _578
REMARK  247  A    between atoms: _578  and  _579
REMARK  248  A    between atoms: _579  and  _580
REMARK  249  A    between atoms: _580  and  _581
REMARK  250  A    between atoms: _581  and  _582
REMARK  251  A    between atoms: _586  and  _588
REMARK  252  A    between atoms: _588  and  _589
REMARK  253  A    between atoms: _588  and  _591
REMARK                            x       y       z     vdW  Elec       q    Type
REMARK                         _______ _______ _______ _____ _____    ______ ____
ROOT
ATOM      1  C   TRP A   1       4.582 -21.811 -27.343  0.00  0.00    +0.239 C 
ATOM      2  O   TRP A   1       3.538 -21.961 -26.693  0.00  0.00    -0.274 OA
ATOM      3  N   GLU A   2       5.733 -22.355 -26.968  0.00  0.00    -0.297 N 
ATOM      4  H   GLU A   2       6.596 -22.189 -27.524  0.00  0.00    +0.150 HD
ENDROOT
BRANCH   1   5
ATOM      5  CA  TRP A   1       4.586 -20.968 -28.606  0.00  0.00    +0.149 C 
BRANCH   5   6
ATOM      6  N   TRP A   1       3.277 -21.196 -29.214  0.00  0.00    -0.238 NA
ATOM      7  H   TRP A   1       2.457 -20.693 -28.819  0.00  0.00    +0.142 HD
ENDBRANCH   5   6
BRANCH   5   8
ATOM      8  CB  TRP A   1       4.717 -19.478 -28.256  0.00  0.00    +0.054 C 
BRANCH   8   9
ATOM      9  CG  TRP A   1       5.948 -19.059 -27.502  0.00  0.00    -0.002 A 
ATOM     10  CD2 TRP A   1       6.157 -19.153 -26.085  0.00  0.00    +0.013 A 
ATOM     11  CE3 TRP A   1       5.388 -19.652 -25.017  0.00  0.00    +0.001 A 
ATOM     12  CZ3 TRP A   1       5.919 -19.593 -23.720  0.00  0.00    +0.000 A 
ATOM     13  CH2 TRP A   1       7.193 -19.032 -23.483  0.00  0.00    +0.001 A 
ATOM     14  CZ2 TRP A   1       7.966 -18.551 -24.513  0.00  0.00    +0.017 A 
ATOM     15  CE2 TRP A   1       7.439 -18.615 -25.812  0.00  0.00    +0.056 A 
ATOM     16  NE1 TRP A   1       7.975 -18.204 -27.007  0.00  0.00    -0.352 N 
ATOM     17  HE1 TRP A   1       8.911 -17.768 -27.131  0.00  0.00    +0.166 HD
ATOM     18  CD1 TRP A   1       7.069 -18.464 -28.018  0.00  0.00    +0.068 A 
ENDBRANCH   8   9
ENDBRANCH   5   8
ENDBRANCH   1   5
BRANCH   3  19
ATOM     19  CA  GLU A   2       5.778 -23.183 -25.776  0.00  0.00    +0.149 C 
BRANCH  19  20
ATOM     20  C   GLU A   2       7.154 -23.187 -25.162  0.00  0.00    +0.241 C 
ATOM     21  N   SER A   3       7.202 -23.162 -23.825  0.00  0.00    -0.296 N 
ATOM     22  H   SER A   3       6.319 -23.066 -23.285  0.00  0.00    +0.150 HD
ATOM     23  O   GLU A   2       8.155 -23.183 -25.887  0.00  0.00    -0.273 OA
BRANCH  21  24
ATOM     24  CA  SER A   3       8.481 -23.268 -23.104  0.00  0.00    +0.166 C 
BRANCH  24  25
ATOM     25  C   SER A   3       8.323 -23.815 -21.697  0.00  0.00    +0.229 C 
ATOM     26  O   SER A   3       7.438 -23.392 -20.945  0.00  0.00    -0.286 OA
ENDBRANCH  24  25
BRANCH  24  27
ATOM     27  CB  SER A   3       9.235 -21.922 -23.067  0.00  0.00    +0.165 C 
BRANCH  27  28
ATOM     28  OG  SER A   3      10.493 -22.074 -22.396  0.00  0.00    -0.380 OA
ATOM     29  H   SER A   3      11.044 -22.741 -22.878  0.00  0.00    +0.211 HD
ENDBRANCH  27  28
ENDBRANCH  24  27
ENDBRANCH  21  24
ENDBRANCH  19  20
BRANCH  19  30
ATOM     30  CB  GLU A   2       5.335 -24.609 -26.103  0.00  0.00    +0.041 C 
BRANCH  30  31
ATOM     31  CG  GLU A   2       5.116 -25.481 -24.884  0.00  0.00    +0.116 C 
BRANCH  31  32
ATOM     32  CD  GLU A   2       4.449 -26.779 -25.261  0.00  0.00    +0.365 C 
ATOM     33  OE2 GLU A   2       3.260 -26.968 -24.926  0.00  0.00    -0.246 OA
ATOM     34  OE1 GLU A   2       5.121 -27.605 -25.901  0.00  0.00    -0.246 OA
ENDBRANCH  31  32
ENDBRANCH  30  31
ENDBRANCH  19  30
ENDBRANCH   3  19
TORSDOF 13
REMARK  Name = ../refined-set-2016/3d0b/3d0b_pocket.pdb
REMARK  253 active torsions:
REMARK  status: ('A' for Active; 'I' for Inactive)
REMARK    1  A    between atoms: _1  and  _3
REMARK    2  A    between atoms: _3  and  _4
REMARK    3  A    between atoms: _3  and  _6
REMARK    4  A    between atoms: _6  and  _7
REMARK    5  A    between atoms: _13  and  _15
REMARK    6  A    between atoms: _15  and  _16
REMARK    7  A    between atoms: _15  and  _18
REMARK    8  A    between atoms: _18  and  _19
REMARK    9  A    between atoms: _19  and  _20
REMARK   10  A    between atoms: _25  and  _27
REMARK   11  A    between atoms: _27  and  _28
REMARK   12  A    between atoms: _27  and  _30
REMARK   13  A    between atoms: _30  and  _31
REMARK   14  A    between atoms: _34  and  _36
REMARK   15  A    between atoms: _36  and  _37
REMARK   16  A    between atoms: _36  and  _39
REMARK   17  A    between atoms: _39  and  _40
REMARK   18  A    between atoms: _40  and  _41
REMARK   19  A    between atoms: _43  and  _45
REMARK   20  A    between atoms: _45  and  _46
REMARK   21  A    between atoms: _45  and  _48
REMARK   22  A    between atoms: _48  and  _49
REMARK   23  A    between atoms: _49  and  _50
REMARK   24  A    between atoms: _53  and  _55
REMARK   25  A    between atoms: _55  and  _56
REMARK   26  A    between atoms: _55  and  _58
REMARK   27  A    between atoms: _58  and  _59
REMARK   28  A    between atoms: _62  and  _64
REMARK   29  A    between atoms: _64  and  _65
REMARK   30  A    between atoms: _64  and  _67
REMARK   31  A    between atoms: _67  and  _68
REMARK   32  A    between atoms: _71  and  _73
REMARK   33  A    between atoms: _73  and  _74
REMARK   34  A    between atoms: _73  and  _76
REMARK   35  A    between atoms: _76  and  _77
REMARK   36  A    between atoms: _79  and  _81
REMARK   37  A    between atoms: _81  and  _82
REMARK   38  A    between atoms: _81  and  _84
REMARK   39  A    between atoms: _84  and  _85
REMARK   40  A    between atoms: _90  and  _92
REMARK   41  A    between atoms: _92  and  _93
REMARK   42  A    between atoms: _92  and  _95
REMARK   43  A    between atoms: _95  and  _96
REMARK   44  A    between atoms: _98  and  _100
REMARK   45  A    between atoms: _100  and  _101
REMARK   46  A    between atoms: _100  and  _103
REMARK   47  A    between atoms: _103  and  _104
REMARK   48  A    between atoms: _106  and  _108
REMARK   49  A    between atoms: _108  and  _109
REMARK   50  A    between atoms: _108  and  _111
REMARK   51  A    between atoms: _111  and  _112
REMARK   52  A    between atoms: _115  and  _117
REMARK   53  A    between atoms: _117  and  _118
REMARK   54  A    between atoms: _121  and  _123
REMARK   55  A    between atoms: _123  and  _124
REMARK   56  A    between atoms: _123  and  _126
REMARK   57  A    between atoms: _126  and  _127
REMARK   58  A    between atoms: _130  and  _132
REMARK   59  A    between atoms: _132  and  _133
REMARK   60  A    between atoms: _132  and  _135
REMARK   61  A    between atoms: _135  and  _136
REMARK   62  A    between atoms: _139  and  _141
REMARK   63  A    between atoms: _141  and  _142
REMARK   64  A    between atoms: _141  and  _144
REMARK   65  A    between atoms: _144  and  _145
REMARK   66  A    between atoms: _145  and  _146
REMARK   67  A    between atoms: _146  and  _147
REMARK   68  A    between atoms: _147  and  _148
REMARK   69  A    between atoms: _152  and  _154
REMARK   70  A    between atoms: _154  and  _155
REMARK   71  A    between atoms: _154  and  _157
REMARK   72  A    between atoms: _157  and  _158
REMARK   73  A    between atoms: _161  and  _163
REMARK   74  A    between atoms: _163  and  _164
REMARK   75  A    between atoms: _163  and  _166
REMARK   76  A    between atoms: _166  and  _167
REMARK   77  A    between atoms: _170  and  _172
REMARK   78  A    between atoms: _172  and  _173
REMARK   79  A    between atoms: _172  and  _175
REMARK   80  A    between atoms: _175  and  _176
REMARK   81  A    between atoms: _179  and  _181
REMARK   82  A    between atoms: _181  and  _182
REMARK   83  A    between atoms: _181  and  _184
REMARK   84  A    between atoms: _187  and  _189
REMARK   85  A    between atoms: _189  and  _190
REMARK   86  A    between atoms: _189  and  _192
REMARK   87  A    between atoms: _192  and  _193
REMARK   88  A    between atoms: _196  and  _198
REMARK   89  A    between atoms: _198  and  _199
REMARK   90  A    between atoms: _198  and  _201
REMARK   91  A    between atoms: _201  and  _202
REMARK   92  A    between atoms: _205  and  _207
REMARK   93  A    between atoms: _207  and  _208
REMARK   94  A    between atoms: _210  and  _212
REMARK   95  A    between atoms: _212  and  _213
REMARK   96  A    between atoms: _212  and  _215
REMARK   97  A    between atoms: _215  and  _216
REMARK   98  A    between atoms: _219  and  _221
REMARK   99  A    between atoms: _221  and  _222
REMARK  100  A    between atoms: _224  and  _226
REMARK  101  A    between atoms: _226  and  _227
REMARK  102  A    between atoms: _226  and  _229
REMARK  103  A    between atoms: _229  and  _230
REMARK  104  A    between atoms: _230  and  _231
REMARK  105  A    between atoms: _233  and  _235
REMARK  106  A    between atoms: _235  and  _236
REMARK  107  A    between atoms: _235  and  _238
REMARK  108  A    between atoms: _238  and  _239
REMARK  109  A    between atoms: _242  and  _244
REMARK  110  A    between atoms: _244  and  _245
REMARK  111  A    between atoms: _244  and  _247
REMARK  112  A    between atoms: _247  and  _248
REMARK  113  A    between atoms: _251  and  _253
REMARK  114  A    between atoms: _253  and  _254
REMARK  115  A    between atoms: _253  and  _256
REMARK  116  A    between atoms: _256  and  _257
REMARK  117  A    between atoms: _260  and  _262
REMARK  118  A    between atoms: _262  and  _263
REMARK  119  A    between atoms: _262  and  _265
REMARK  120  A    between atoms: _265  and  _266
REMARK  121  A    between atoms: _269  and  _271
REMARK  122  A    between atoms: _271  and  _272
REMARK  123  A    between atoms: _271  and  _274
REMARK  124  A    between atoms: _274  and  _275
REMARK  125  A    between atoms: _280  and  _282
REMARK  126  A    between atoms: _282  and  _283
REMARK  127  A    between atoms: _282  and  _285
REMARK  128  A    between atoms: _285  and  _286
REMARK  129  A    between atoms: _291  and  _293
REMARK  130  A    between atoms: _293  and  _294
REMARK  131  A    between atoms: _293  and  _296
REMARK  132  A    between atoms: _296  and  _297
REMARK  133  A    between atoms: _300  and  _302
REMARK  134  A    between atoms: _302  and  _303
REMARK  135  A    between atoms: _305  and  _307
REMARK  136  A    between atoms: _307  and  _308
REMARK  137  A    between atoms: _307  and  _310
REMARK  138  A    between atoms: _310  and  _311
REMARK  139  A    between atoms: _314  and  _316
REMARK  140  A    between atoms: _316  and  _317
REMARK  141  A    between atoms: _316  and  _319
REMARK  142  A    between atoms: _319  and  _320
REMARK  143  A    between atoms: _323  and  _325
REMARK  144  A    between atoms: _325  and  _326
REMARK  145  A    between atoms: _329  and  _331
REMARK  146  A    between atoms: _331  and  _332
REMARK  147  A    between atoms: _331  and  _334
REMARK  148  A    between atoms: _334  and  _335
REMARK  149  A    between atoms: _335  and  _336
REMARK  150  A    between atoms: _336  and  _337
REMARK  151  A    between atoms: _337  and  _338
REMARK  152  A    between atoms: _342  and  _344
REMARK  153  A    between atoms: _344  and  _345
REMARK  154  A    between atoms: _344  and  _347
REMARK  155  A    between atoms: _347  and  _348
REMARK  156  A    between atoms: _351  and  _353
REMARK  157  A    between atoms: _353  and  _354
REMARK  158  A    between atoms: _353  and  _356
REMARK  159  A    between atoms: _356  and  _357
REMARK  160  A    between atoms: _363  and  _365
REMARK  161  A    between atoms: _365  and  _366
REMARK  162  A    between atoms: _368  and  _370
REMARK  163  A    between atoms: _370  and  _371
REMARK  164  A    between atoms: _370  and  _373
REMARK  165  A    between atoms: _376  and  _378
REMARK  166  A    between atoms: _378  and  _379
REMARK  167  A    between atoms: _381  and  _383
REMARK  168  A    between atoms: _383  and  _384
REMARK  169  A    between atoms: _383  and  _386
REMARK  170  A    between atoms: _386  and  _387
REMARK  171  A    between atoms: _393  and  _395
REMARK  172  A    between atoms: _395  and  _396
REMARK  173  A    between atoms: _395  and  _398
REMARK  174  A    between atoms: _398  and  _399
REMARK  175  A    between atoms: _404  and  _405
REMARK  176  A    between atoms: _407  and  _409
REMARK  177  A    between atoms: _409  and  _410
REMARK  178  A    between atoms: _409  and  _412
REMARK  179  A    between atoms: _412  and  _413
REMARK  180  A    between atoms: _415  and  _417
REMARK  181  A    between atoms: _417  and  _418
REMARK  182  A    between atoms: _417  and  _420
REMARK  183  A    between atoms: _420  and  _421
REMARK  184  A    between atoms: _426  and  _427
REMARK  185  A    between atoms: _429  and  _431
REMARK  186  A    between atoms: _431  and  _432
REMARK  187  A    between atoms: _431  and  _434
REMARK  188  A    between atoms: _437  and  _439
REMARK  189  A    between atoms: _439  and  _440
REMARK  190  A    between atoms: _439  and  _442
REMARK  191  A    between atoms: _442  and  _443
REMARK  192  A    between atoms: _446  and  _448
REMARK  193  A    between atoms: _448  and  _449
REMARK  194  A    between atoms: _448  and  _451
REMARK  195  A    between atoms: _454  and  _456
REMARK  196  A    between atoms: _456  and  _457
REMARK  197  A    between atoms: _456  and  _459
REMARK  198  A    between atoms: _459  and  _460
REMARK  199  A    between atoms: _463  and  _465
REMARK  200  A    between atoms: _465  and  _466
REMARK  201  A    between atoms: _465  and  _468
REMARK  202  A    between atoms: _468  and  _469
REMARK  203  A    between atoms: _472  and  _474
REMARK  204  A    between atoms: _474  and  _475
REMARK  205  A    between atoms: _474  and  _477
REMARK  206  A    between atoms: _477  and  _478
REMARK  207  A    between atoms: _478  and  _479
REMARK  208  A    between atoms: _479  and  _480
REMARK  209  A    between atoms: _480  and  _481
REMARK  210  A    between atoms: _485  and  _487
REMARK  211  A    between atoms: _487  and  _488
REMARK  212  A    between atoms: _487  and  _490
REMARK  213  A    between atoms: _490  and  _491
REMARK  214  A    between atoms: _496  and  _498
REMARK  215  A    between atoms: _498  and  _499
REMARK  216  A    between atoms: _498  and  _501
REMARK  217  A    between atoms: _501  and  _502
REMARK  218  A    between atoms: _512  and  _514
REMARK  219  A    between atoms: _514  and  _515
REMARK  220  A    between atoms: _514  and  _517
REMARK  221  A    between atoms: _517  and  _518
REMARK  222  A    between atoms: _518  and  _519
REMARK  223  A    between atoms: _522  and  _524
REMARK  224  A    between atoms: _524  and  _525
REMARK  225  A    between atoms: _524  and  _527
REMARK  226  A    between atoms: _527  and  _528
REMARK  227  A    between atoms: _530  and  _532
REMARK  228  A    between atoms: _532  and  _533
REMARK  229  A    between atoms: _532  and  _535
REMARK  230  A    between atoms: _535  and  _536
REMARK  231  A    between atoms: _542  and  _544
REMARK  232  A    between atoms: _544  and  _545
REMARK  233  A    between atoms: _544  and  _547
REMARK  234  A    between atoms: _547  and  _548
REMARK  235  A    between atoms: _551  and  _553
REMARK  236  A    between atoms: _553  and  _554
REMARK  237  A    between atoms: _553  and  _556
REMARK  238  A    between atoms: _559  and  _561
REMARK  239  A    between atoms: _561  and  _562
REMARK  240  A    between atoms: _564  and  _566
REMARK  241  A    between atoms: _566  and  _567
REMARK  242  A    between atoms: _566  and  _569
REMARK  243  A    between atoms: _569  and  _570
REMARK  244  A    between atoms: _573  and  _575
REMARK  245  A    between atoms: _575  and  _576
REMARK  246  A    between atoms: _575  and  _578
REMARK  247  A    between atoms: _578  and  _579
REMARK  248  A    between atoms: _579  and  _580
REMARK  249  A    between atoms: _580  and  _581
REMARK  250  A    between atoms: _581  and  _582
REMARK  251  A    between atoms: _586  and  _588
REMARK  252  A    between atoms: _588  and  _589
REMARK  253  A    between atoms: _588  and  _591
REMARK                            x       y       z     vdW  Elec       q    Type
REMARK                         _______ _______ _______ _____ _____    ______ ____
ROOT
ATOM      1  CA  THR A   2       9.378 -23.771 -29.561  0.00  0.00    +0.176 C 
ENDROOT
BRANCH   1   3
ATOM      2  C   PHE A   1      10.957 -22.829 -27.980  0.00  0.00    +0.239 C 
ATOM      3  N   THR A   2       9.737 -23.292 -28.237  0.00  0.00    -0.295 N 
ATOM      4  H   THR A   2       9.027 -23.312 -27.477  0.00  0.00    +0.150 HD
ATOM      5  O   PHE A   1      11.869 -22.843 -28.806  0.00  0.00    -0.274 OA
BRANCH   2   6
ATOM      6  CA  PHE A   1      11.203 -22.306 -26.564  0.00  0.00    +0.149 C 
BRANCH   6   7
ATOM      7  N   PHE A   1      12.632 -22.324 -26.274  0.00  0.00    -0.238 NA
ATOM      8  H   PHE A   1      13.284 -21.987 -27.011  0.00  0.00    +0.142 HD
ENDBRANCH   6   7
BRANCH   6   9
ATOM      9  CB  PHE A   1      10.591 -20.910 -26.355  0.00  0.00    +0.053 C 
BRANCH   9  10
ATOM     10  CG  PHE A   1      11.080 -19.844 -27.313  0.00  0.00    -0.020 A 
ATOM     11  CD2 PHE A   1      12.203 -19.079 -26.999  0.00  0.00    -0.004 A 
ATOM     12  CE2 PHE A   1      12.654 -18.070 -27.846  0.00  0.00    -0.000 A 
ATOM     13  CZ  PHE A   1      11.985 -17.800 -29.043  0.00  0.00    -0.000 A 
ATOM     14  CE1 PHE A   1      10.856 -18.556 -29.380  0.00  0.00    -0.000 A 
ATOM     15  CD1 PHE A   1      10.405 -19.579 -28.510  0.00  0.00    -0.004 A 
ENDBRANCH   9  10
ENDBRANCH   6   9
ENDBRANCH   2   6
ENDBRANCH   1   3
BRANCH   1  16
ATOM     16  C   THR A   2       8.260 -22.916 -30.117  0.00  0.00    +0.243 C 
ATOM     17  O   THR A   2       7.470 -22.346 -29.359  0.00  0.00    -0.273 OA
ATOM     18  N   VAL A   3       8.220 -22.809 -31.441  0.00  0.00    -0.298 N 
ATOM     19  H   VAL A   3       9.027 -23.157 -31.997  0.00  0.00    +0.150 HD
BRANCH  18  20
ATOM     20  CA  VAL A   3       7.089 -22.223 -32.139  0.00  0.00    +0.137 C 
BRANCH  20  21
ATOM     21  CB  VAL A   3       7.437 -20.829 -32.712  0.00  0.00    +0.026 C 
ATOM     22  CG2 VAL A   3       7.876 -19.891 -31.591  0.00  0.00    +0.002 C 
ATOM     23  CG1 VAL A   3       6.254 -20.230 -33.487  0.00  0.00    +0.002 C 
ENDBRANCH  20  21
BRANCH  20  24
ATOM     24  C   VAL A   3       6.692 -23.191 -33.257  0.00  0.00    +0.227 C 
ATOM     25  O   VAL A   3       7.552 -23.740 -33.964  0.00  0.00    -0.286 OA
ENDBRANCH  20  24
ENDBRANCH  18  20
ENDBRANCH   1  16
BRANCH   1  26
ATOM     26  CB  THR A   2       8.925 -25.259 -29.569  0.00  0.00    +0.137 C 
ATOM     27  CG2 THR A   2      10.016 -26.187 -29.027  0.00  0.00    +0.034 C 
BRANCH  26  28
ATOM     28  OG1 THR A   2       7.726 -25.418 -28.797  0.00  0.00    -0.382 OA
ATOM     29  HG1 THR A   2       7.008 -24.859 -29.186  0.00  0.00    +0.210 HD
ENDBRANCH  26  28
ENDBRANCH   1  26
TORSDOF 11
REMARK  Name = ../refined-set-2016/3d0b/3d0b_pocket.pdb
REMARK  253 active torsions:
REMARK  status: ('A' for Active; 'I' for Inactive)
REMARK    1  A    between atoms: _1  and  _3
REMARK    2  A    between atoms: _3  and  _4
REMARK    3  A    between atoms: _3  and  _6
REMARK    4  A    between atoms: _6  and  _7
REMARK    5  A    between atoms: _13  and  _15
REMARK    6  A    between atoms: _15  and  _16
REMARK    7  A    between atoms: _15  and  _18
REMARK    8  A    between atoms: _18  and  _19
REMARK    9  A    between atoms: _19  and  _20
REMARK   10  A    between atoms: _25  and  _27
REMARK   11  A    between atoms: _27  and  _28
REMARK   12  A    between atoms: _27  and  _30
REMARK   13  A    between atoms: _30  and  _31
REMARK   14  A    between atoms: _34  and  _36
REMARK   15  A    between atoms: _36  and  _37
REMARK   16  A    between atoms: _36  and  _39
REMARK   17  A    between atoms: _39  and  _40
REMARK   18  A    between atoms: _40  and  _41
REMARK   19  A    between atoms: _43  and  _45
REMARK   20  A    between atoms: _45  and  _46
REMARK   21  A    between atoms: _45  and  _48
REMARK   22  A    between atoms: _48  and  _49
REMARK   23  A    between atoms: _49  and  _50
REMARK   24  A    between atoms: _53  and  _55
REMARK   25  A    between atoms: _55  and  _56
REMARK   26  A    between atoms: _55  and  _58
REMARK   27  A    between atoms: _58  and  _59
REMARK   28  A    between atoms: _62  and  _64
REMARK   29  A    between atoms: _64  and  _65
REMARK   30  A    between atoms: _64  and  _67
REMARK   31  A    between atoms: _67  and  _68
REMARK   32  A    between atoms: _71  and  _73
REMARK   33  A    between atoms: _73  and  _74
REMARK   34  A    between atoms: _73  and  _76
REMARK   35  A    between atoms: _76  and  _77
REMARK   36  A    between atoms: _79  and  _81
REMARK   37  A    between atoms: _81  and  _82
REMARK   38  A    between atoms: _81  and  _84
REMARK   39  A    between atoms: _84  and  _85
REMARK   40  A    between atoms: _90  and  _92
REMARK   41  A    between atoms: _92  and  _93
REMARK   42  A    between atoms: _92  and  _95
REMARK   43  A    between atoms: _95  and  _96
REMARK   44  A    between atoms: _98  and  _100
REMARK   45  A    between atoms: _100  and  _101
REMARK   46  A    between atoms: _100  and  _103
REMARK   47  A    between atoms: _103  and  _104
REMARK   48  A    between atoms: _106  and  _108
REMARK   49  A    between atoms: _108  and  _109
REMARK   50  A    between atoms: _108  and  _111
REMARK   51  A    between atoms: _111  and  _112
REMARK   52  A    between atoms: _115  and  _117
REMARK   53  A    between atoms: _117  and  _118
REMARK   54  A    between atoms: _121  and  _123
REMARK   55  A    between atoms: _123  and  _124
REMARK   56  A    between atoms: _123  and  _126
REMARK   57  A    between atoms: _126  and  _127
REMARK   58  A    between atoms: _130  and  _132
REMARK   59  A    between atoms: _132  and  _133
REMARK   60  A    between atoms: _132  and  _135
REMARK   61  A    between atoms: _135  and  _136
REMARK   62  A    between atoms: _139  and  _141
REMARK   63  A    between atoms: _141  and  _142
REMARK   64  A    between atoms: _141  and  _144
REMARK   65  A    between atoms: _144  and  _145
REMARK   66  A    between atoms: _145  and  _146
REMARK   67  A    between atoms: _146  and  _147
REMARK   68  A    between atoms: _147  and  _148
REMARK   69  A    between atoms: _152  and  _154
REMARK   70  A    between atoms: _154  and  _155
REMARK   71  A    between atoms: _154  and  _157
REMARK   72  A    between atoms: _157  and  _158
REMARK   73  A    between atoms: _161  and  _163
REMARK   74  A    between atoms: _163  and  _164
REMARK   75  A    between atoms: _163  and  _166
REMARK   76  A    between atoms: _166  and  _167
REMARK   77  A    between atoms: _170  and  _172
REMARK   78  A    between atoms: _172  and  _173
REMARK   79  A    between atoms: _172  and  _175
REMARK   80  A    between atoms: _175  and  _176
REMARK   81  A    between atoms: _179  and  _181
REMARK   82  A    between atoms: _181  and  _182
REMARK   83  A    between atoms: _181  and  _184
REMARK   84  A    between atoms: _187  and  _189
REMARK   85  A    between atoms: _189  and  _190
REMARK   86  A    between atoms: _189  and  _192
REMARK   87  A    between atoms: _192  and  _193
REMARK   88  A    between atoms: _196  and  _198
REMARK   89  A    between atoms: _198  and  _199
REMARK   90  A    between atoms: _198  and  _201
REMARK   91  A    between atoms: _201  and  _202
REMARK   92  A    between atoms: _205  and  _207
REMARK   93  A    between atoms: _207  and  _208
REMARK   94  A    between atoms: _210  and  _212
REMARK   95  A    between atoms: _212  and  _213
REMARK   96  A    between atoms: _212  and  _215
REMARK   97  A    between atoms: _215  and  _216
REMARK   98  A    between atoms: _219  and  _221
REMARK   99  A    between atoms: _221  and  _222
REMARK  100  A    between atoms: _224  and  _226
REMARK  101  A    between atoms: _226  and  _227
REMARK  102  A    between atoms: _226  and  _229
REMARK  103  A    between atoms: _229  and  _230
REMARK  104  A    between atoms: _230  and  _231
REMARK  105  A    between atoms: _233  and  _235
REMARK  106  A    between atoms: _235  and  _236
REMARK  107  A    between atoms: _235  and  _238
REMARK  108  A    between atoms: _238  and  _239
REMARK  109  A    between atoms: _242  and  _244
REMARK  110  A    between atoms: _244  and  _245
REMARK  111  A    between atoms: _244  and  _247
REMARK  112  A    between atoms: _247  and  _248
REMARK  113  A    between atoms: _251  and  _253
REMARK  114  A    between atoms: _253  and  _254
REMARK  115  A    between atoms: _253  and  _256
REMARK  116  A    between atoms: _256  and  _257
REMARK  117  A    between atoms: _260  and  _262
REMARK  118  A    between atoms: _262  and  _263
REMARK  119  A    between atoms: _262  and  _265
REMARK  120  A    between atoms: _265  and  _266
REMARK  121  A    between atoms: _269  and  _271
REMARK  122  A    between atoms: _271  and  _272
REMARK  123  A    between atoms: _271  and  _274
REMARK  124  A    between atoms: _274  and  _275
REMARK  125  A    between atoms: _280  and  _282
REMARK  126  A    between atoms: _282  and  _283
REMARK  127  A    between atoms: _282  and  _285
REMARK  128  A    between atoms: _285  and  _286
REMARK  129  A    between atoms: _291  and  _293
REMARK  130  A    between atoms: _293  and  _294
REMARK  131  A    between atoms: _293  and  _296
REMARK  132  A    between atoms: _296  and  _297
REMARK  133  A    between atoms: _300  and  _302
REMARK  134  A    between atoms: _302  and  _303
REMARK  135  A    between atoms: _305  and  _307
REMARK  136  A    between atoms: _307  and  _308
REMARK  137  A    between atoms: _307  and  _310
REMARK  138  A    between atoms: _310  and  _311
REMARK  139  A    between atoms: _314  and  _316
REMARK  140  A    between atoms: _316  and  _317
REMARK  141  A    between atoms: _316  and  _319
REMARK  142  A    between atoms: _319  and  _320
REMARK  143  A    between atoms: _323  and  _325
REMARK  144  A    between atoms: _325  and  _326
REMARK  145  A    between atoms: _329  and  _331
REMARK  146  A    between atoms: _331  and  _332
REMARK  147  A    between atoms: _331  and  _334
REMARK  148  A    between atoms: _334  and  _335
REMARK  149  A    between atoms: _335  and  _336
REMARK  150  A    between atoms: _336  and  _337
REMARK  151  A    between atoms: _337  and  _338
REMARK  152  A    between atoms: _342  and  _344
REMARK  153  A    between atoms: _344  and  _345
REMARK  154  A    between atoms: _344  and  _347
REMARK  155  A    between atoms: _347  and  _348
REMARK  156  A    between atoms: _351  and  _353
REMARK  157  A    between atoms: _353  and  _354
REMARK  158  A    between atoms: _353  and  _356
REMARK  159  A    between atoms: _356  and  _357
REMARK  160  A    between atoms: _363  and  _365
REMARK  161  A    between atoms: _365  and  _366
REMARK  162  A    between atoms: _368  and  _370
REMARK  163  A    between atoms: _370  and  _371
REMARK  164  A    between atoms: _370  and  _373
REMARK  165  A    between atoms: _376  and  _378
REMARK  166  A    between atoms: _378  and  _379
REMARK  167  A    between atoms: _381  and  _383
REMARK  168  A    between atoms: _383  and  _384
REMARK  169  A    between atoms: _383  and  _386
REMARK  170  A    between atoms: _386  and  _387
REMARK  171  A    between atoms: _393  and  _395
REMARK  172  A    between atoms: _395  and  _396
REMARK  173  A    between atoms: _395  and  _398
REMARK  174  A    between atoms: _398  and  _399
REMARK  175  A    between atoms: _404  and  _405
REMARK  176  A    between atoms: _407  and  _409
REMARK  177  A    between atoms: _409  and  _410
REMARK  178  A    between atoms: _409  and  _412
REMARK  179  A    between atoms: _412  and  _413
REMARK  180  A    between atoms: _415  and  _417
REMARK  181  A    between atoms: _417  and  _418
REMARK  182  A    between atoms: _417  and  _420
REMARK  183  A    between atoms: _420  and  _421
REMARK  184  A    between atoms: _426  and  _427
REMARK  185  A    between atoms: _429  and  _431
REMARK  186  A    between atoms: _431  and  _432
REMARK  187  A    between atoms: _431  and  _434
REMARK  188  A    between atoms: _437  and  _439
REMARK  189  A    between atoms: _439  and  _440
REMARK  190  A    between atoms: _439  and  _442
REMARK  191  A    between atoms: _442  and  _443
REMARK  192  A    between atoms: _446  and  _448
REMARK  193  A    between atoms: _448  and  _449
REMARK  194  A    between atoms: _448  and  _451
REMARK  195  A    between atoms: _454  and  _456
REMARK  196  A    between atoms: _456  and  _457
REMARK  197  A    between atoms: _456  and  _459
REMARK  198  A    between atoms: _459  and  _460
REMARK  199  A    between atoms: _463  and  _465
REMARK  200  A    between atoms: _465  and  _466
REMARK  201  A    between atoms: _465  and  _468
REMARK  202  A    between atoms: _468  and  _469
REMARK  203  A    between atoms: _472  and  _474
REMARK  204  A    between atoms: _474  and  _475
REMARK  205  A    between atoms: _474  and  _477
REMARK  206  A    between atoms: _477  and  _478
REMARK  207  A    between atoms: _478  and  _479
REMARK  208  A    between atoms: _479  and  _480
REMARK  209  A    between atoms: _480  and  _481
REMARK  210  A    between atoms: _485  and  _487
REMARK  211  A    between atoms: _487  and  _488
REMARK  212  A    between atoms: _487  and  _490
REMARK  213  A    between atoms: _490  and  _491
REMARK  214  A    between atoms: _496  and  _498
REMARK  215  A    between atoms: _498  and  _499
REMARK  216  A    between atoms: _498  and  _501
REMARK  217  A    between atoms: _501  and  _502
REMARK  218  A    between atoms: _512  and  _514
REMARK  219  A    between atoms: _514  and  _515
REMARK  220  A    between atoms: _514  and  _517
REMARK  221  A    between atoms: _517  and  _518
REMARK  222  A    between atoms: _518  and  _519
REMARK  223  A    between atoms: _522  and  _524
REMARK  224  A    between atoms: _524  and  _525
REMARK  225  A    between atoms: _524  and  _527
REMARK  226  A    between atoms: _527  and  _528
REMARK  227  A    between atoms: _530  and  _532
REMARK  228  A    between atoms: _532  and  _533
REMARK  229  A    between atoms: _532  and  _535
REMARK  230  A    between atoms: _535  and  _536
REMARK  231  A    between atoms: _542  and  _544
REMARK  232  A    between atoms: _544  and  _545
REMARK  233  A    between atoms: _544  and  _547
REMARK  234  A    between atoms: _547  and  _548
REMARK  235  A    between atoms: _551  and  _553
REMARK  236  A    between atoms: _553  and  _554
REMARK  237  A    between atoms: _553  and  _556
REMARK  238  A    between atoms: _559  and  _561
REMARK  239  A    between atoms: _561  and  _562
REMARK  240  A    between atoms: _564  and  _566
REMARK  241  A    between atoms: _566  and  _567
REMARK  242  A    between atoms: _566  and  _569
REMARK  243  A    between atoms: _569  and  _570
REMARK  244  A    between atoms: _573  and  _575
REMARK  245  A    between atoms: _575  and  _576
REMARK  246  A    between atoms: _575  and  _578
REMARK  247  A    between atoms: _578  and  _579
REMARK  248  A    between atoms: _579  and  _580
REMARK  249  A    between atoms: _580  and  _581
REMARK  250  A    between atoms: _581  and  _582
REMARK  251  A    between atoms: _586  and  _588
REMARK  252  A    between atoms: _588  and  _589
REMARK  253  A    between atoms: _588  and  _591
REMARK                            x       y       z     vdW  Elec       q    Type
REMARK                         _______ _______ _______ _____ _____    ______ ____
ROOT
ATOM      1  CA  LYS A   3      -4.670 -18.259 -25.041  0.00  0.00    +0.149 C 
ENDROOT
BRANCH   1   4
ATOM      2  C   THR A   2      -4.945 -16.137 -26.211  0.00  0.00    +0.243 C 
ATOM      3  O   THR A   2      -5.828 -15.734 -25.445  0.00  0.00    -0.273 OA
ATOM      4  N   LYS A   3      -4.426 -17.357 -26.150  0.00  0.00    -0.297 N 
ATOM      5  H   LYS A   3      -3.819 -17.680 -26.930  0.00  0.00    +0.150 HD
BRANCH   2   6
ATOM      6  CA  THR A   2      -4.390 -15.246 -27.316  0.00  0.00    +0.176 C 
BRANCH   6   8
ATOM      7  C   GLY A   1      -5.439 -14.217 -29.258  0.00  0.00    +0.240 C 
ATOM      8  N   THR A   2      -5.437 -14.442 -27.948  0.00  0.00    -0.295 N 
ATOM      9  H   THR A   2      -6.194 -14.039 -27.360  0.00  0.00    +0.150 HD
ATOM     10  O   GLY A   1      -4.637 -14.739 -30.040  0.00  0.00    -0.274 OA
BRANCH   7  11
ATOM     11  CA  GLY A   1      -6.507 -13.269 -29.759  0.00  0.00    +0.169 C 
BRANCH  11  12
ATOM     12  N   GLY A   1      -6.783 -13.399 -31.177  0.00  0.00    -0.236 NA
ATOM     13  H   GLY A   1      -5.996 -13.420 -31.857  0.00  0.00    +0.142 HD
ENDBRANCH  11  12
ENDBRANCH   7  11
ENDBRANCH   6   8
BRANCH   6  14
ATOM     14  CB  THR A   2      -3.278 -14.337 -26.763  0.00  0.00    +0.137 C 
ATOM     15  CG2 THR A   2      -2.160 -15.153 -26.068  0.00  0.00    +0.034 C 
BRANCH  14  16
ATOM     16  OG1 THR A   2      -2.737 -13.551 -27.835  0.00  0.00    -0.382 OA
ATOM     17  HG1 THR A   2      -2.363 -14.152 -28.527  0.00  0.00    +0.210 HD
ENDBRANCH  14  16
ENDBRANCH   6  14
ENDBRANCH   2   6
ENDBRANCH   1   4
BRANCH   1  18
ATOM     18  C   LYS A   3      -3.323 -18.553 -24.400  0.00  0.00    +0.241 C 
ATOM     19  N   VAL A   4      -3.184 -18.210 -23.126  0.00  0.00    -0.298 N 
ATOM     20  H   VAL A   4      -3.929 -17.645 -22.671  0.00  0.00    +0.150 HD
ATOM     21  O   LYS A   3      -2.430 -19.091 -25.070  0.00  0.00    -0.273 OA
BRANCH  19  22
ATOM     22  CA  VAL A   4      -2.011 -18.605 -22.342  0.00  0.00    +0.137 C 
BRANCH  22  23
ATOM     23  CB  VAL A   4      -1.473 -17.437 -21.501  0.00  0.00    +0.026 C 
ATOM     24  CG2 VAL A   4      -0.294 -17.876 -20.632  0.00  0.00    +0.002 C 
ATOM     25  CG1 VAL A   4      -1.083 -16.265 -22.427  0.00  0.00    +0.002 C 
ENDBRANCH  22  23
BRANCH  22  26
ATOM     26  C   VAL A   4      -2.400 -19.782 -21.457  0.00  0.00    +0.227 C 
ATOM     27  O   VAL A   4      -3.208 -19.637 -20.526  0.00  0.00    -0.286 OA
ENDBRANCH  22  26
ENDBRANCH  19  22
ENDBRANCH   1  18
BRANCH   1  28
ATOM     28  CB  LYS A   3      -5.247 -19.585 -25.522  0.00  0.00    +0.029 C 
BRANCH  28  29
ATOM     29  CG  LYS A   3      -6.602 -19.518 -26.169  0.00  0.00    +0.000 C 
BRANCH  29  30
ATOM     30  CD  LYS A   3      -7.104 -20.943 -26.356  0.00  0.00    -0.024 C 
BRANCH  30  31
ATOM     31  CE  LYS A   3      -8.393 -21.003 -27.150  0.00  0.00    -0.086 C 
BRANCH  31  32
ATOM     32  NZ  LYS A   3      -8.741 -22.438 -27.374  0.00  0.00    +0.380 N 
ATOM     33  HZ1 LYS A   3      -8.865 -22.911 -26.456  0.00  0.00    -0.089 HD
ATOM     34  HZ2 LYS A   3      -7.974 -22.901 -27.903  0.00  0.00    -0.089 HD
ATOM     35  HZ3 LYS A   3      -9.625 -22.498 -27.919  0.00  0.00    -0.089 HD
ENDBRANCH  31  32
ENDBRANCH  30  31
ENDBRANCH  29  30
ENDBRANCH  28  29
ENDBRANCH   1  28
TORSDOF 16
REMARK  Name = ../refined-set-2016/3d0b/3d0b_pocket.pdb
REMARK  253 active torsions:
REMARK  status: ('A' for Active; 'I' for Inactive)
REMARK    1  A    between atoms: _1  and  _3
REMARK    2  A    between atoms: _3  and  _4
REMARK    3  A    between atoms: _3  and  _6
REMARK    4  A    between atoms: _6  and  _7
REMARK    5  A    between atoms: _13  and  _15
REMARK    6  A    between atoms: _15  and  _16
REMARK    7  A    between atoms: _15  and  _18
REMARK    8  A    between atoms: _18  and  _19
REMARK    9  A    between atoms: _19  and  _20
REMARK   10  A    between atoms: _25  and  _27
REMARK   11  A    between atoms: _27  and  _28
REMARK   12  A    between atoms: _27  and  _30
REMARK   13  A    between atoms: _30  and  _31
REMARK   14  A    between atoms: _34  and  _36
REMARK   15  A    between atoms: _36  and  _37
REMARK   16  A    between atoms: _36  and  _39
REMARK   17  A    between atoms: _39  and  _40
REMARK   18  A    between atoms: _40  and  _41
REMARK   19  A    between atoms: _43  and  _45
REMARK   20  A    between atoms: _45  and  _46
REMARK   21  A    between atoms: _45  and  _48
REMARK   22  A    between atoms: _48  and  _49
REMARK   23  A    between atoms: _49  and  _50
REMARK   24  A    between atoms: _53  and  _55
REMARK   25  A    between atoms: _55  and  _56
REMARK   26  A    between atoms: _55  and  _58
REMARK   27  A    between atoms: _58  and  _59
REMARK   28  A    between atoms: _62  and  _64
REMARK   29  A    between atoms: _64  and  _65
REMARK   30  A    between atoms: _64  and  _67
REMARK   31  A    between atoms: _67  and  _68
REMARK   32  A    between atoms: _71  and  _73
REMARK   33  A    between atoms: _73  and  _74
REMARK   34  A    between atoms: _73  and  _76
REMARK   35  A    between atoms: _76  and  _77
REMARK   36  A    between atoms: _79  and  _81
REMARK   37  A    between atoms: _81  and  _82
REMARK   38  A    between atoms: _81  and  _84
REMARK   39  A    between atoms: _84  and  _85
REMARK   40  A    between atoms: _90  and  _92
REMARK   41  A    between atoms: _92  and  _93
REMARK   42  A    between atoms: _92  and  _95
REMARK   43  A    between atoms: _95  and  _96
REMARK   44  A    between atoms: _98  and  _100
REMARK   45  A    between atoms: _100  and  _101
REMARK   46  A    between atoms: _100  and  _103
REMARK   47  A    between atoms: _103  and  _104
REMARK   48  A    between atoms: _106  and  _108
REMARK   49  A    between atoms: _108  and  _109
REMARK   50  A    between atoms: _108  and  _111
REMARK   51  A    between atoms: _111  and  _112
REMARK   52  A    between atoms: _115  and  _117
REMARK   53  A    between atoms: _117  and  _118
REMARK   54  A    between atoms: _121  and  _123
REMARK   55  A    between atoms: _123  and  _124
REMARK   56  A    between atoms: _123  and  _126
REMARK   57  A    between atoms: _126  and  _127
REMARK   58  A    between atoms: _130  and  _132
REMARK   59  A    between atoms: _132  and  _133
REMARK   60  A    between atoms: _132  and  _135
REMARK   61  A    between atoms: _135  and  _136
REMARK   62  A    between atoms: _139  and  _141
REMARK   63  A    between atoms: _141  and  _142
REMARK   64  A    between atoms: _141  and  _144
REMARK   65  A    between atoms: _144  and  _145
REMARK   66  A    between atoms: _145  and  _146
REMARK   67  A    between atoms: _146  and  _147
REMARK   68  A    between atoms: _147  and  _148
REMARK   69  A    between atoms: _152  and  _154
REMARK   70  A    between atoms: _154  and  _155
REMARK   71  A    between atoms: _154  and  _157
REMARK   72  A    between atoms: _157  and  _158
REMARK   73  A    between atoms: _161  and  _163
REMARK   74  A    between atoms: _163  and  _164
REMARK   75  A    between atoms: _163  and  _166
REMARK   76  A    between atoms: _166  and  _167
REMARK   77  A    between atoms: _170  and  _172
REMARK   78  A    between atoms: _172  and  _173
REMARK   79  A    between atoms: _172  and  _175
REMARK   80  A    between atoms: _175  and  _176
REMARK   81  A    between atoms: _179  and  _181
REMARK   82  A    between atoms: _181  and  _182
REMARK   83  A    between atoms: _181  and  _184
REMARK   84  A    between atoms: _187  and  _189
REMARK   85  A    between atoms: _189  and  _190
REMARK   86  A    between atoms: _189  and  _192
REMARK   87  A    between atoms: _192  and  _193
REMARK   88  A    between atoms: _196  and  _198
REMARK   89  A    between atoms: _198  and  _199
REMARK   90  A    between atoms: _198  and  _201
REMARK   91  A    between atoms: _201  and  _202
REMARK   92  A    between atoms: _205  and  _207
REMARK   93  A    between atoms: _207  and  _208
REMARK   94  A    between atoms: _210  and  _212
REMARK   95  A    between atoms: _212  and  _213
REMARK   96  A    between atoms: _212  and  _215
REMARK   97  A    between atoms: _215  and  _216
REMARK   98  A    between atoms: _219  and  _221
REMARK   99  A    between atoms: _221  and  _222
REMARK  100  A    between atoms: _224  and  _226
REMARK  101  A    between atoms: _226  and  _227
REMARK  102  A    between atoms: _226  and  _229
REMARK  103  A    between atoms: _229  and  _230
REMARK  104  A    between atoms: _230  and  _231
REMARK  105  A    between atoms: _233  and  _235
REMARK  106  A    between atoms: _235  and  _236
REMARK  107  A    between atoms: _235  and  _238
REMARK  108  A    between atoms: _238  and  _239
REMARK  109  A    between atoms: _242  and  _244
REMARK  110  A    between atoms: _244  and  _245
REMARK  111  A    between atoms: _244  and  _247
REMARK  112  A    between atoms: _247  and  _248
REMARK  113  A    between atoms: _251  and  _253
REMARK  114  A    between atoms: _253  and  _254
REMARK  115  A    between atoms: _253  and  _256
REMARK  116  A    between atoms: _256  and  _257
REMARK  117  A    between atoms: _260  and  _262
REMARK  118  A    between atoms: _262  and  _263
REMARK  119  A    between atoms: _262  and  _265
REMARK  120  A    between atoms: _265  and  _266
REMARK  121  A    between atoms: _269  and  _271
REMARK  122  A    between atoms: _271  and  _272
REMARK  123  A    between atoms: _271  and  _274
REMARK  124  A    between atoms: _274  and  _275
REMARK  125  A    between atoms: _280  and  _282
REMARK  126  A    between atoms: _282  and  _283
REMARK  127  A    between atoms: _282  and  _285
REMARK  128  A    between atoms: _285  and  _286
REMARK  129  A    between atoms: _291  and  _293
REMARK  130  A    between atoms: _293  and  _294
REMARK  131  A    between atoms: _293  and  _296
REMARK  132  A    between atoms: _296  and  _297
REMARK  133  A    between atoms: _300  and  _302
REMARK  134  A    between atoms: _302  and  _303
REMARK  135  A    between atoms: _305  and  _307
REMARK  136  A    between atoms: _307  and  _308
REMARK  137  A    between atoms: _307  and  _310
REMARK  138  A    between atoms: _310  and  _311
REMARK  139  A    between atoms: _314  and  _316
REMARK  140  A    between atoms: _316  and  _317
REMARK  141  A    between atoms: _316  and  _319
REMARK  142  A    between atoms: _319  and  _320
REMARK  143  A    between atoms: _323  and  _325
REMARK  144  A    between atoms: _325  and  _326
REMARK  145  A    between atoms: _329  and  _331
REMARK  146  A    between atoms: _331  and  _332
REMARK  147  A    between atoms: _331  and  _334
REMARK  148  A    between atoms: _334  and  _335
REMARK  149  A    between atoms: _335  and  _336
REMARK  150  A    between atoms: _336  and  _337
REMARK  151  A    between atoms: _337  and  _338
REMARK  152  A    between atoms: _342  and  _344
REMARK  153  A    between atoms: _344  and  _345
REMARK  154  A    between atoms: _344  and  _347
REMARK  155  A    between atoms: _347  and  _348
REMARK  156  A    between atoms: _351  and  _353
REMARK  157  A    between atoms: _353  and  _354
REMARK  158  A    between atoms: _353  and  _356
REMARK  159  A    between atoms: _356  and  _357
REMARK  160  A    between atoms: _363  and  _365
REMARK  161  A    between atoms: _365  and  _366
REMARK  162  A    between atoms: _368  and  _370
REMARK  163  A    between atoms: _370  and  _371
REMARK  164  A    between atoms: _370  and  _373
REMARK  165  A    between atoms: _376  and  _378
REMARK  166  A    between atoms: _378  and  _379
REMARK  167  A    between atoms: _381  and  _383
REMARK  168  A    between atoms: _383  and  _384
REMARK  169  A    between atoms: _383  and  _386
REMARK  170  A    between atoms: _386  and  _387
REMARK  171  A    between atoms: _393  and  _395
REMARK  172  A    between atoms: _395  and  _396
REMARK  173  A    between atoms: _395  and  _398
REMARK  174  A    between atoms: _398  and  _399
REMARK  175  A    between atoms: _404  and  _405
REMARK  176  A    between atoms: _407  and  _409
REMARK  177  A    between atoms: _409  and  _410
REMARK  178  A    between atoms: _409  and  _412
REMARK  179  A    between atoms: _412  and  _413
REMARK  180  A    between atoms: _415  and  _417
REMARK  181  A    between atoms: _417  and  _418
REMARK  182  A    between atoms: _417  and  _420
REMARK  183  A    between atoms: _420  and  _421
REMARK  184  A    between atoms: _426  and  _427
REMARK  185  A    between atoms: _429  and  _431
REMARK  186  A    between atoms: _431  and  _432
REMARK  187  A    between atoms: _431  and  _434
REMARK  188  A    between atoms: _437  and  _439
REMARK  189  A    between atoms: _439  and  _440
REMARK  190  A    between atoms: _439  and  _442
REMARK  191  A    between atoms: _442  and  _443
REMARK  192  A    between atoms: _446  and  _448
REMARK  193  A    between atoms: _448  and  _449
REMARK  194  A    between atoms: _448  and  _451
REMARK  195  A    between atoms: _454  and  _456
REMARK  196  A    between atoms: _456  and  _457
REMARK  197  A    between atoms: _456  and  _459
REMARK  198  A    between atoms: _459  and  _460
REMARK  199  A    between atoms: _463  and  _465
REMARK  200  A    between atoms: _465  and  _466
REMARK  201  A    between atoms: _465  and  _468
REMARK  202  A    between atoms: _468  and  _469
REMARK  203  A    between atoms: _472  and  _474
REMARK  204  A    between atoms: _474  and  _475
REMARK  205  A    between atoms: _474  and  _477
REMARK  206  A    between atoms: _477  and  _478
REMARK  207  A    between atoms: _478  and  _479
REMARK  208  A    between atoms: _479  and  _480
REMARK  209  A    between atoms: _480  and  _481
REMARK  210  A    between atoms: _485  and  _487
REMARK  211  A    between atoms: _487  and  _488
REMARK  212  A    between atoms: _487  and  _490
REMARK  213  A    between atoms: _490  and  _491
REMARK  214  A    between atoms: _496  and  _498
REMARK  215  A    between atoms: _498  and  _499
REMARK  216  A    between atoms: _498  and  _501
REMARK  217  A    between atoms: _501  and  _502
REMARK  218  A    between atoms: _512  and  _514
REMARK  219  A    between atoms: _514  and  _515
REMARK  220  A    between atoms: _514  and  _517
REMARK  221  A    between atoms: _517  and  _518
REMARK  222  A    between atoms: _518  and  _519
REMARK  223  A    between atoms: _522  and  _524
REMARK  224  A    between atoms: _524  and  _525
REMARK  225  A    between atoms: _524  and  _527
REMARK  226  A    between atoms: _527  and  _528
REMARK  227  A    between atoms: _530  and  _532
REMARK  228  A    between atoms: _532  and  _533
REMARK  229  A    between atoms: _532  and  _535
REMARK  230  A    between atoms: _535  and  _536
REMARK  231  A    between atoms: _542  and  _544
REMARK  232  A    between atoms: _544  and  _545
REMARK  233  A    between atoms: _544  and  _547
REMARK  234  A    between atoms: _547  and  _548
REMARK  235  A    between atoms: _551  and  _553
REMARK  236  A    between atoms: _553  and  _554
REMARK  237  A    between atoms: _553  and  _556
REMARK  238  A    between atoms: _559  and  _561
REMARK  239  A    between atoms: _561  and  _562
REMARK  240  A    between atoms: _564  and  _566
REMARK  241  A    between atoms: _566  and  _567
REMARK  242  A    between atoms: _566  and  _569
REMARK  243  A    between atoms: _569  and  _570
REMARK  244  A    between atoms: _573  and  _575
REMARK  245  A    between atoms: _575  and  _576
REMARK  246  A    between atoms: _575  and  _578
REMARK  247  A    between atoms: _578  and  _579
REMARK  248  A    between atoms: _579  and  _580
REMARK  249  A    between atoms: _580  and  _581
REMARK  250  A    between atoms: _581  and  _582
REMARK  251  A    between atoms: _586  and  _588
REMARK  252  A    between atoms: _588  and  _589
REMARK  253  A    between atoms: _588  and  _591
REMARK                            x       y       z     vdW  Elec       q    Type
REMARK                         _______ _______ _______ _____ _____    ______ ____
ROOT
ATOM      1  O   HOH     1      14.773 -14.221 -26.282  0.00  0.00    +0.000 OA
ENDROOT
TORSDOF 0
REMARK  Name = ../refined-set-2016/3d0b/3d0b_pocket.pdb
REMARK  253 active torsions:
REMARK  status: ('A' for Active; 'I' for Inactive)
REMARK    1  A    between atoms: _1  and  _3
REMARK    2  A    between atoms: _3  and  _4
REMARK    3  A    between atoms: _3  and  _6
REMARK    4  A    between atoms: _6  and  _7
REMARK    5  A    between atoms: _13  and  _15
REMARK    6  A    between atoms: _15  and  _16
REMARK    7  A    between atoms: _15  and  _18
REMARK    8  A    between atoms: _18  and  _19
REMARK    9  A    between atoms: _19  and  _20
REMARK   10  A    between atoms: _25  and  _27
REMARK   11  A    between atoms: _27  and  _28
REMARK   12  A    between atoms: _27  and  _30
REMARK   13  A    between atoms: _30  and  _31
REMARK   14  A    between atoms: _34  and  _36
REMARK   15  A    between atoms: _36  and  _37
REMARK   16  A    between atoms: _36  and  _39
REMARK   17  A    between atoms: _39  and  _40
REMARK   18  A    between atoms: _40  and  _41
REMARK   19  A    between atoms: _43  and  _45
REMARK   20  A    between atoms: _45  and  _46
REMARK   21  A    between atoms: _45  and  _48
REMARK   22  A    between atoms: _48  and  _49
REMARK   23  A    between atoms: _49  and  _50
REMARK   24  A    between atoms: _53  and  _55
REMARK   25  A    between atoms: _55  and  _56
REMARK   26  A    between atoms: _55  and  _58
REMARK   27  A    between atoms: _58  and  _59
REMARK   28  A    between atoms: _62  and  _64
REMARK   29  A    between atoms: _64  and  _65
REMARK   30  A    between atoms: _64  and  _67
REMARK   31  A    between atoms: _67  and  _68
REMARK   32  A    between atoms: _71  and  _73
REMARK   33  A    between atoms: _73  and  _74
REMARK   34  A    between atoms: _73  and  _76
REMARK   35  A    between atoms: _76  and  _77
REMARK   36  A    between atoms: _79  and  _81
REMARK   37  A    between atoms: _81  and  _82
REMARK   38  A    between atoms: _81  and  _84
REMARK   39  A    between atoms: _84  and  _85
REMARK   40  A    between atoms: _90  and  _92
REMARK   41  A    between atoms: _92  and  _93
REMARK   42  A    between atoms: _92  and  _95
REMARK   43  A    between atoms: _95  and  _96
REMARK   44  A    between atoms: _98  and  _100
REMARK   45  A    between atoms: _100  and  _101
REMARK   46  A    between atoms: _100  and  _103
REMARK   47  A    between atoms: _103  and  _104
REMARK   48  A    between atoms: _106  and  _108
REMARK   49  A    between atoms: _108  and  _109
REMARK   50  A    between atoms: _108  and  _111
REMARK   51  A    between atoms: _111  and  _112
REMARK   52  A    between atoms: _115  and  _117
REMARK   53  A    between atoms: _117  and  _118
REMARK   54  A    between atoms: _121  and  _123
REMARK   55  A    between atoms: _123  and  _124
REMARK   56  A    between atoms: _123  and  _126
REMARK   57  A    between atoms: _126  and  _127
REMARK   58  A    between atoms: _130  and  _132
REMARK   59  A    between atoms: _132  and  _133
REMARK   60  A    between atoms: _132  and  _135
REMARK   61  A    between atoms: _135  and  _136
REMARK   62  A    between atoms: _139  and  _141
REMARK   63  A    between atoms: _141  and  _142
REMARK   64  A    between atoms: _141  and  _144
REMARK   65  A    between atoms: _144  and  _145
REMARK   66  A    between atoms: _145  and  _146
REMARK   67  A    between atoms: _146  and  _147
REMARK   68  A    between atoms: _147  and  _148
REMARK   69  A    between atoms: _152  and  _154
REMARK   70  A    between atoms: _154  and  _155
REMARK   71  A    between atoms: _154  and  _157
REMARK   72  A    between atoms: _157  and  _158
REMARK   73  A    between atoms: _161  and  _163
REMARK   74  A    between atoms: _163  and  _164
REMARK   75  A    between atoms: _163  and  _166
REMARK   76  A    between atoms: _166  and  _167
REMARK   77  A    between atoms: _170  and  _172
REMARK   78  A    between atoms: _172  and  _173
REMARK   79  A    between atoms: _172  and  _175
REMARK   80  A    between atoms: _175  and  _176
REMARK   81  A    between atoms: _179  and  _181
REMARK   82  A    between atoms: _181  and  _182
REMARK   83  A    between atoms: _181  and  _184
REMARK   84  A    between atoms: _187  and  _189
REMARK   85  A    between atoms: _189  and  _190
REMARK   86  A    between atoms: _189  and  _192
REMARK   87  A    between atoms: _192  and  _193
REMARK   88  A    between atoms: _196  and  _198
REMARK   89  A    between atoms: _198  and  _199
REMARK   90  A    between atoms: _198  and  _201
REMARK   91  A    between atoms: _201  and  _202
REMARK   92  A    between atoms: _205  and  _207
REMARK   93  A    between atoms: _207  and  _208
REMARK   94  A    between atoms: _210  and  _212
REMARK   95  A    between atoms: _212  and  _213
REMARK   96  A    between atoms: _212  and  _215
REMARK   97  A    between atoms: _215  and  _216
REMARK   98  A    between atoms: _219  and  _221
REMARK   99  A    between atoms: _221  and  _222
REMARK  100  A    between atoms: _224  and  _226
REMARK  101  A    between atoms: _226  and  _227
REMARK  102  A    between atoms: _226  and  _229
REMARK  103  A    between atoms: _229  and  _230
REMARK  104  A    between atoms: _230  and  _231
REMARK  105  A    between atoms: _233  and  _235
REMARK  106  A    between atoms: _235  and  _236
REMARK  107  A    between atoms: _235  and  _238
REMARK  108  A    between atoms: _238  and  _239
REMARK  109  A    between atoms: _242  and  _244
REMARK  110  A    between atoms: _244  and  _245
REMARK  111  A    between atoms: _244  and  _247
REMARK  112  A    between atoms: _247  and  _248
REMARK  113  A    between atoms: _251  and  _253
REMARK  114  A    between atoms: _253  and  _254
REMARK  115  A    between atoms: _253  and  _256
REMARK  116  A    between atoms: _256  and  _257
REMARK  117  A    between atoms: _260  and  _262
REMARK  118  A    between atoms: _262  and  _263
REMARK  119  A    between atoms: _262  and  _265
REMARK  120  A    between atoms: _265  and  _266
REMARK  121  A    between atoms: _269  and  _271
REMARK  122  A    between atoms: _271  and  _272
REMARK  123  A    between atoms: _271  and  _274
REMARK  124  A    between atoms: _274  and  _275
REMARK  125  A    between atoms: _280  and  _282
REMARK  126  A    between atoms: _282  and  _283
REMARK  127  A    between atoms: _282  and  _285
REMARK  128  A    between atoms: _285  and  _286
REMARK  129  A    between atoms: _291  and  _293
REMARK  130  A    between atoms: _293  and  _294
REMARK  131  A    between atoms: _293  and  _296
REMARK  132  A    between atoms: _296  and  _297
REMARK  133  A    between atoms: _300  and  _302
REMARK  134  A    between atoms: _302  and  _303
REMARK  135  A    between atoms: _305  and  _307
REMARK  136  A    between atoms: _307  and  _308
REMARK  137  A    between atoms: _307  and  _310
REMARK  138  A    between atoms: _310  and  _311
REMARK  139  A    between atoms: _314  and  _316
REMARK  140  A    between atoms: _316  and  _317
REMARK  141  A    between atoms: _316  and  _319
REMARK  142  A    between atoms: _319  and  _320
REMARK  143  A    between atoms: _323  and  _325
REMARK  144  A    between atoms: _325  and  _326
REMARK  145  A    between atoms: _329  and  _331
REMARK  146  A    between atoms: _331  and  _332
REMARK  147  A    between atoms: _331  and  _334
REMARK  148  A    between atoms: _334  and  _335
REMARK  149  A    between atoms: _335  and  _336
REMARK  150  A    between atoms: _336  and  _337
REMARK  151  A    between atoms: _337  and  _338
REMARK  152  A    between atoms: _342  and  _344
REMARK  153  A    between atoms: _344  and  _345
REMARK  154  A    between atoms: _344  and  _347
REMARK  155  A    between atoms: _347  and  _348
REMARK  156  A    between atoms: _351  and  _353
REMARK  157  A    between atoms: _353  and  _354
REMARK  158  A    between atoms: _353  and  _356
REMARK  159  A    between atoms: _356  and  _357
REMARK  160  A    between atoms: _363  and  _365
REMARK  161  A    between atoms: _365  and  _366
REMARK  162  A    between atoms: _368  and  _370
REMARK  163  A    between atoms: _370  and  _371
REMARK  164  A    between atoms: _370  and  _373
REMARK  165  A    between atoms: _376  and  _378
REMARK  166  A    between atoms: _378  and  _379
REMARK  167  A    between atoms: _381  and  _383
REMARK  168  A    between atoms: _383  and  _384
REMARK  169  A    between atoms: _383  and  _386
REMARK  170  A    between atoms: _386  and  _387
REMARK  171  A    between atoms: _393  and  _395
REMARK  172  A    between atoms: _395  and  _396
REMARK  173  A    between atoms: _395  and  _398
REMARK  174  A    between atoms: _398  and  _399
REMARK  175  A    between atoms: _404  and  _405
REMARK  176  A    between atoms: _407  and  _409
REMARK  177  A    between atoms: _409  and  _410
REMARK  178  A    between atoms: _409  and  _412
REMARK  179  A    between atoms: _412  and  _413
REMARK  180  A    between atoms: _415  and  _417
REMARK  181  A    between atoms: _417  and  _418
REMARK  182  A    between atoms: _417  and  _420
REMARK  183  A    between atoms: _420  and  _421
REMARK  184  A    between atoms: _426  and  _427
REMARK  185  A    between atoms: _429  and  _431
REMARK  186  A    between atoms: _431  and  _432
REMARK  187  A    between atoms: _431  and  _434
REMARK  188  A    between atoms: _437  and  _439
REMARK  189  A    between atoms: _439  and  _440
REMARK  190  A    between atoms: _439  and  _442
REMARK  191  A    between atoms: _442  and  _443
REMARK  192  A    between atoms: _446  and  _448
REMARK  193  A    between atoms: _448  and  _449
REMARK  194  A    between atoms: _448  and  _451
REMARK  195  A    between atoms: _454  and  _456
REMARK  196  A    between atoms: _456  and  _457
REMARK  197  A    between atoms: _456  and  _459
REMARK  198  A    between atoms: _459  and  _460
REMARK  199  A    between atoms: _463  and  _465
REMARK  200  A    between atoms: _465  and  _466
REMARK  201  A    between atoms: _465  and  _468
REMARK  202  A    between atoms: _468  and  _469
REMARK  203  A    between atoms: _472  and  _474
REMARK  204  A    between atoms: _474  and  _475
REMARK  205  A    between atoms: _474  and  _477
REMARK  206  A    between atoms: _477  and  _478
REMARK  207  A    between atoms: _478  and  _479
REMARK  208  A    between atoms: _479  and  _480
REMARK  209  A    between atoms: _480  and  _481
REMARK  210  A    between atoms: _485  and  _487
REMARK  211  A    between atoms: _487  and  _488
REMARK  212  A    between atoms: _487  and  _490
REMARK  213  A    between atoms: _490  and  _491
REMARK  214  A    between atoms: _496  and  _498
REMARK  215  A    between atoms: _498  and  _499
REMARK  216  A    between atoms: _498  and  _501
REMARK  217  A    between atoms: _501  and  _502
REMARK  218  A    between atoms: _512  and  _514
REMARK  219  A    between atoms: _514  and  _515
REMARK  220  A    between atoms: _514  and  _517
REMARK  221  A    between atoms: _517  and  _518
REMARK  222  A    between atoms: _518  and  _519
REMARK  223  A    between atoms: _522  and  _524
REMARK  224  A    between atoms: _524  and  _525
REMARK  225  A    between atoms: _524  and  _527
REMARK  226  A    between atoms: _527  and  _528
REMARK  227  A    between atoms: _530  and  _532
REMARK  228  A    between atoms: _532  and  _533
REMARK  229  A    between atoms: _532  and  _535
REMARK  230  A    between atoms: _535  and  _536
REMARK  231  A    between atoms: _542  and  _544
REMARK  232  A    between atoms: _544  and  _545
REMARK  233  A    between atoms: _544  and  _547
REMARK  234  A    between atoms: _547  and  _548
REMARK  235  A    between atoms: _551  and  _553
REMARK  236  A    between atoms: _553  and  _554
REMARK  237  A    between atoms: _553  and  _556
REMARK  238  A    between atoms: _559  and  _561
REMARK  239  A    between atoms: _561  and  _562
REMARK  240  A    between atoms: _564  and  _566
REMARK  241  A    between atoms: _566  and  _567
REMARK  242  A    between atoms: _566  and  _569
REMARK  243  A    between atoms: _569  and  _570
REMARK  244  A    between atoms: _573  and  _575
REMARK  245  A    between atoms: _575  and  _576
REMARK  246  A    between atoms: _575  and  _578
REMARK  247  A    between atoms: _578  and  _579
REMARK  248  A    between atoms: _579  and  _580
REMARK  249  A    between atoms: _580  and  _581
REMARK  250  A    between atoms: _581  and  _582
REMARK  251  A    between atoms: _586  and  _588
REMARK  252  A    between atoms: _588  and  _589
REMARK  253  A    between atoms: _588  and  _591
REMARK                            x       y       z     vdW  Elec       q    Type
REMARK                         _______ _______ _______ _____ _____    ______ ____
ROOT
ATOM      1  O   HOH     1      -4.161 -14.573 -22.922  0.00  0.00    +0.000 OA
ENDROOT
TORSDOF 0
REMARK  Name = ../refined-set-2016/3d0b/3d0b_pocket.pdb
REMARK  253 active torsions:
REMARK  status: ('A' for Active; 'I' for Inactive)
REMARK    1  A    between atoms: _1  and  _3
REMARK    2  A    between atoms: _3  and  _4
REMARK    3  A    between atoms: _3  and  _6
REMARK    4  A    between atoms: _6  and  _7
REMARK    5  A    between atoms: _13  and  _15
REMARK    6  A    between atoms: _15  and  _16
REMARK    7  A    between atoms: _15  and  _18
REMARK    8  A    between atoms: _18  and  _19
REMARK    9  A    between atoms: _19  and  _20
REMARK   10  A    between atoms: _25  and  _27
REMARK   11  A    between atoms: _27  and  _28
REMARK   12  A    between atoms: _27  and  _30
REMARK   13  A    between atoms: _30  and  _31
REMARK   14  A    between atoms: _34  and  _36
REMARK   15  A    between atoms: _36  and  _37
REMARK   16  A    between atoms: _36  and  _39
REMARK   17  A    between atoms: _39  and  _40
REMARK   18  A    between atoms: _40  and  _41
REMARK   19  A    between atoms: _43  and  _45
REMARK   20  A    between atoms: _45  and  _46
REMARK   21  A    between atoms: _45  and  _48
REMARK   22  A    between atoms: _48  and  _49
REMARK   23  A    between atoms: _49  and  _50
REMARK   24  A    between atoms: _53  and  _55
REMARK   25  A    between atoms: _55  and  _56
REMARK   26  A    between atoms: _55  and  _58
REMARK   27  A    between atoms: _58  and  _59
REMARK   28  A    between atoms: _62  and  _64
REMARK   29  A    between atoms: _64  and  _65
REMARK   30  A    between atoms: _64  and  _67
REMARK   31  A    between atoms: _67  and  _68
REMARK   32  A    between atoms: _71  and  _73
REMARK   33  A    between atoms: _73  and  _74
REMARK   34  A    between atoms: _73  and  _76
REMARK   35  A    between atoms: _76  and  _77
REMARK   36  A    between atoms: _79  and  _81
REMARK   37  A    between atoms: _81  and  _82
REMARK   38  A    between atoms: _81  and  _84
REMARK   39  A    between atoms: _84  and  _85
REMARK   40  A    between atoms: _90  and  _92
REMARK   41  A    between atoms: _92  and  _93
REMARK   42  A    between atoms: _92  and  _95
REMARK   43  A    between atoms: _95  and  _96
REMARK   44  A    between atoms: _98  and  _100
REMARK   45  A    between atoms: _100  and  _101
REMARK   46  A    between atoms: _100  and  _103
REMARK   47  A    between atoms: _103  and  _104
REMARK   48  A    between atoms: _106  and  _108
REMARK   49  A    between atoms: _108  and  _109
REMARK   50  A    between atoms: _108  and  _111
REMARK   51  A    between atoms: _111  and  _112
REMARK   52  A    between atoms: _115  and  _117
REMARK   53  A    between atoms: _117  and  _118
REMARK   54  A    between atoms: _121  and  _123
REMARK   55  A    between atoms: _123  and  _124
REMARK   56  A    between atoms: _123  and  _126
REMARK   57  A    between atoms: _126  and  _127
REMARK   58  A    between atoms: _130  and  _132
REMARK   59  A    between atoms: _132  and  _133
REMARK   60  A    between atoms: _132  and  _135
REMARK   61  A    between atoms: _135  and  _136
REMARK   62  A    between atoms: _139  and  _141
REMARK   63  A    between atoms: _141  and  _142
REMARK   64  A    between atoms: _141  and  _144
REMARK   65  A    between atoms: _144  and  _145
REMARK   66  A    between atoms: _145  and  _146
REMARK   67  A    between atoms: _146  and  _147
REMARK   68  A    between atoms: _147  and  _148
REMARK   69  A    between atoms: _152  and  _154
REMARK   70  A    between atoms: _154  and  _155
REMARK   71  A    between atoms: _154  and  _157
REMARK   72  A    between atoms: _157  and  _158
REMARK   73  A    between atoms: _161  and  _163
REMARK   74  A    between atoms: _163  and  _164
REMARK   75  A    between atoms: _163  and  _166
REMARK   76  A    between atoms: _166  and  _167
REMARK   77  A    between atoms: _170  and  _172
REMARK   78  A    between atoms: _172  and  _173
REMARK   79  A    between atoms: _172  and  _175
REMARK   80  A    between atoms: _175  and  _176
REMARK   81  A    between atoms: _179  and  _181
REMARK   82  A    between atoms: _181  and  _182
REMARK   83  A    between atoms: _181  and  _184
REMARK   84  A    between atoms: _187  and  _189
REMARK   85  A    between atoms: _189  and  _190
REMARK   86  A    between atoms: _189  and  _192
REMARK   87  A    between atoms: _192  and  _193
REMARK   88  A    between atoms: _196  and  _198
REMARK   89  A    between atoms: _198  and  _199
REMARK   90  A    between atoms: _198  and  _201
REMARK   91  A    between atoms: _201  and  _202
REMARK   92  A    between atoms: _205  and  _207
REMARK   93  A    between atoms: _207  and  _208
REMARK   94  A    between atoms: _210  and  _212
REMARK   95  A    between atoms: _212  and  _213
REMARK   96  A    between atoms: _212  and  _215
REMARK   97  A    between atoms: _215  and  _216
REMARK   98  A    between atoms: _219  and  _221
REMARK   99  A    between atoms: _221  and  _222
REMARK  100  A    between atoms: _224  and  _226
REMARK  101  A    between atoms: _226  and  _227
REMARK  102  A    between atoms: _226  and  _229
REMARK  103  A    between atoms: _229  and  _230
REMARK  104  A    between atoms: _230  and  _231
REMARK  105  A    between atoms: _233  and  _235
REMARK  106  A    between atoms: _235  and  _236
REMARK  107  A    between atoms: _235  and  _238
REMARK  108  A    between atoms: _238  and  _239
REMARK  109  A    between atoms: _242  and  _244
REMARK  110  A    between atoms: _244  and  _245
REMARK  111  A    between atoms: _244  and  _247
REMARK  112  A    between atoms: _247  and  _248
REMARK  113  A    between atoms: _251  and  _253
REMARK  114  A    between atoms: _253  and  _254
REMARK  115  A    between atoms: _253  and  _256
REMARK  116  A    between atoms: _256  and  _257
REMARK  117  A    between atoms: _260  and  _262
REMARK  118  A    between atoms: _262  and  _263
REMARK  119  A    between atoms: _262  and  _265
REMARK  120  A    between atoms: _265  and  _266
REMARK  121  A    between atoms: _269  and  _271
REMARK  122  A    between atoms: _271  and  _272
REMARK  123  A    between atoms: _271  and  _274
REMARK  124  A    between atoms: _274  and  _275
REMARK  125  A    between atoms: _280  and  _282
REMARK  126  A    between atoms: _282  and  _283
REMARK  127  A    between atoms: _282  and  _285
REMARK  128  A    between atoms: _285  and  _286
REMARK  129  A    between atoms: _291  and  _293
REMARK  130  A    between atoms: _293  and  _294
REMARK  131  A    between atoms: _293  and  _296
REMARK  132  A    between atoms: _296  and  _297
REMARK  133  A    between atoms: _300  and  _302
REMARK  134  A    between atoms: _302  and  _303
REMARK  135  A    between atoms: _305  and  _307
REMARK  136  A    between atoms: _307  and  _308
REMARK  137  A    between atoms: _307  and  _310
REMARK  138  A    between atoms: _310  and  _311
REMARK  139  A    between atoms: _314  and  _316
REMARK  140  A    between atoms: _316  and  _317
REMARK  141  A    between atoms: _316  and  _319
REMARK  142  A    between atoms: _319  and  _320
REMARK  143  A    between atoms: _323  and  _325
REMARK  144  A    between atoms: _325  and  _326
REMARK  145  A    between atoms: _329  and  _331
REMARK  146  A    between atoms: _331  and  _332
REMARK  147  A    between atoms: _331  and  _334
REMARK  148  A    between atoms: _334  and  _335
REMARK  149  A    between atoms: _335  and  _336
REMARK  150  A    between atoms: _336  and  _337
REMARK  151  A    between atoms: _337  and  _338
REMARK  152  A    between atoms: _342  and  _344
REMARK  153  A    between atoms: _344  and  _345
REMARK  154  A    between atoms: _344  and  _347
REMARK  155  A    between atoms: _347  and  _348
REMARK  156  A    between atoms: _351  and  _353
REMARK  157  A    between atoms: _353  and  _354
REMARK  158  A    between atoms: _353  and  _356
REMARK  159  A    between atoms: _356  and  _357
REMARK  160  A    between atoms: _363  and  _365
REMARK  161  A    between atoms: _365  and  _366
REMARK  162  A    between atoms: _368  and  _370
REMARK  163  A    between atoms: _370  and  _371
REMARK  164  A    between atoms: _370  and  _373
REMARK  165  A    between atoms: _376  and  _378
REMARK  166  A    between atoms: _378  and  _379
REMARK  167  A    between atoms: _381  and  _383
REMARK  168  A    between atoms: _383  and  _384
REMARK  169  A    between atoms: _383  and  _386
REMARK  170  A    between atoms: _386  and  _387
REMARK  171  A    between atoms: _393  and  _395
REMARK  172  A    between atoms: _395  and  _396
REMARK  173  A    between atoms: _395  and  _398
REMARK  174  A    between atoms: _398  and  _399
REMARK  175  A    between atoms: _404  and  _405
REMARK  176  A    between atoms: _407  and  _409
REMARK  177  A    between atoms: _409  and  _410
REMARK  178  A    between atoms: _409  and  _412
REMARK  179  A    between atoms: _412  and  _413
REMARK  180  A    between atoms: _415  and  _417
REMARK  181  A    between atoms: _417  and  _418
REMARK  182  A    between atoms: _417  and  _420
REMARK  183  A    between atoms: _420  and  _421
REMARK  184  A    between atoms: _426  and  _427
REMARK  185  A    between atoms: _429  and  _431
REMARK  186  A    between atoms: _431  and  _432
REMARK  187  A    between atoms: _431  and  _434
REMARK  188  A    between atoms: _437  and  _439
REMARK  189  A    between atoms: _439  and  _440
REMARK  190  A    between atoms: _439  and  _442
REMARK  191  A    between atoms: _442  and  _443
REMARK  192  A    between atoms: _446  and  _448
REMARK  193  A    between atoms: _448  and  _449
REMARK  194  A    between atoms: _448  and  _451
REMARK  195  A    between atoms: _454  and  _456
REMARK  196  A    between atoms: _456  and  _457
REMARK  197  A    between atoms: _456  and  _459
REMARK  198  A    between atoms: _459  and  _460
REMARK  199  A    between atoms: _463  and  _465
REMARK  200  A    between atoms: _465  and  _466
REMARK  201  A    between atoms: _465  and  _468
REMARK  202  A    between atoms: _468  and  _469
REMARK  203  A    between atoms: _472  and  _474
REMARK  204  A    between atoms: _474  and  _475
REMARK  205  A    between atoms: _474  and  _477
REMARK  206  A    between atoms: _477  and  _478
REMARK  207  A    between atoms: _478  and  _479
REMARK  208  A    between atoms: _479  and  _480
REMARK  209  A    between atoms: _480  and  _481
REMARK  210  A    between atoms: _485  and  _487
REMARK  211  A    between atoms: _487  and  _488
REMARK  212  A    between atoms: _487  and  _490
REMARK  213  A    between atoms: _490  and  _491
REMARK  214  A    between atoms: _496  and  _498
REMARK  215  A    between atoms: _498  and  _499
REMARK  216  A    between atoms: _498  and  _501
REMARK  217  A    between atoms: _501  and  _502
REMARK  218  A    between atoms: _512  and  _514
REMARK  219  A    between atoms: _514  and  _515
REMARK  220  A    between atoms: _514  and  _517
REMARK  221  A    between atoms: _517  and  _518
REMARK  222  A    between atoms: _518  and  _519
REMARK  223  A    between atoms: _522  and  _524
REMARK  224  A    between atoms: _524  and  _525
REMARK  225  A    between atoms: _524  and  _527
REMARK  226  A    between atoms: _527  and  _528
REMARK  227  A    between atoms: _530  and  _532
REMARK  228  A    between atoms: _532  and  _533
REMARK  229  A    between atoms: _532  and  _535
REMARK  230  A    between atoms: _535  and  _536
REMARK  231  A    between atoms: _542  and  _544
REMARK  232  A    between atoms: _544  and  _545
REMARK  233  A    between atoms: _544  and  _547
REMARK  234  A    between atoms: _547  and  _548
REMARK  235  A    between atoms: _551  and  _553
REMARK  236  A    between atoms: _553  and  _554
REMARK  237  A    between atoms: _553  and  _556
REMARK  238  A    between atoms: _559  and  _561
REMARK  239  A    between atoms: _561  and  _562
REMARK  240  A    between atoms: _564  and  _566
REMARK  241  A    between atoms: _566  and  _567
REMARK  242  A    between atoms: _566  and  _569
REMARK  243  A    between atoms: _569  and  _570
REMARK  244  A    between atoms: _573  and  _575
REMARK  245  A    between atoms: _575  and  _576
REMARK  246  A    between atoms: _575  and  _578
REMARK  247  A    between atoms: _578  and  _579
REMARK  248  A    between atoms: _579  and  _580
REMARK  249  A    between atoms: _580  and  _581
REMARK  250  A    between atoms: _581  and  _582
REMARK  251  A    between atoms: _586  and  _588
REMARK  252  A    between atoms: _588  and  _589
REMARK  253  A    between atoms: _588  and  _591
REMARK                            x       y       z     vdW  Elec       q    Type
REMARK                         _______ _______ _______ _____ _____    ______ ____
ROOT
ATOM      1  O   HOH     1      -3.915 -11.155 -27.514  0.00  0.00    +0.000 OA
ENDROOT
TORSDOF 0
REMARK  Name = ../refined-set-2016/3d0b/3d0b_pocket.pdb
REMARK  253 active torsions:
REMARK  status: ('A' for Active; 'I' for Inactive)
REMARK    1  A    between atoms: _1  and  _3
REMARK    2  A    between atoms: _3  and  _4
REMARK    3  A    between atoms: _3  and  _6
REMARK    4  A    between atoms: _6  and  _7
REMARK    5  A    between atoms: _13  and  _15
REMARK    6  A    between atoms: _15  and  _16
REMARK    7  A    between atoms: _15  and  _18
REMARK    8  A    between atoms: _18  and  _19
REMARK    9  A    between atoms: _19  and  _20
REMARK   10  A    between atoms: _25  and  _27
REMARK   11  A    between atoms: _27  and  _28
REMARK   12  A    between atoms: _27  and  _30
REMARK   13  A    between atoms: _30  and  _31
REMARK   14  A    between atoms: _34  and  _36
REMARK   15  A    between atoms: _36  and  _37
REMARK   16  A    between atoms: _36  and  _39
REMARK   17  A    between atoms: _39  and  _40
REMARK   18  A    between atoms: _40  and  _41
REMARK   19  A    between atoms: _43  and  _45
REMARK   20  A    between atoms: _45  and  _46
REMARK   21  A    between atoms: _45  and  _48
REMARK   22  A    between atoms: _48  and  _49
REMARK   23  A    between atoms: _49  and  _50
REMARK   24  A    between atoms: _53  and  _55
REMARK   25  A    between atoms: _55  and  _56
REMARK   26  A    between atoms: _55  and  _58
REMARK   27  A    between atoms: _58  and  _59
REMARK   28  A    between atoms: _62  and  _64
REMARK   29  A    between atoms: _64  and  _65
REMARK   30  A    between atoms: _64  and  _67
REMARK   31  A    between atoms: _67  and  _68
REMARK   32  A    between atoms: _71  and  _73
REMARK   33  A    between atoms: _73  and  _74
REMARK   34  A    between atoms: _73  and  _76
REMARK   35  A    between atoms: _76  and  _77
REMARK   36  A    between atoms: _79  and  _81
REMARK   37  A    between atoms: _81  and  _82
REMARK   38  A    between atoms: _81  and  _84
REMARK   39  A    between atoms: _84  and  _85
REMARK   40  A    between atoms: _90  and  _92
REMARK   41  A    between atoms: _92  and  _93
REMARK   42  A    between atoms: _92  and  _95
REMARK   43  A    between atoms: _95  and  _96
REMARK   44  A    between atoms: _98  and  _100
REMARK   45  A    between atoms: _100  and  _101
REMARK   46  A    between atoms: _100  and  _103
REMARK   47  A    between atoms: _103  and  _104
REMARK   48  A    between atoms: _106  and  _108
REMARK   49  A    between atoms: _108  and  _109
REMARK   50  A    between atoms: _108  and  _111
REMARK   51  A    between atoms: _111  and  _112
REMARK   52  A    between atoms: _115  and  _117
REMARK   53  A    between atoms: _117  and  _118
REMARK   54  A    between atoms: _121  and  _123
REMARK   55  A    between atoms: _123  and  _124
REMARK   56  A    between atoms: _123  and  _126
REMARK   57  A    between atoms: _126  and  _127
REMARK   58  A    between atoms: _130  and  _132
REMARK   59  A    between atoms: _132  and  _133
REMARK   60  A    between atoms: _132  and  _135
REMARK   61  A    between atoms: _135  and  _136
REMARK   62  A    between atoms: _139  and  _141
REMARK   63  A    between atoms: _141  and  _142
REMARK   64  A    between atoms: _141  and  _144
REMARK   65  A    between atoms: _144  and  _145
REMARK   66  A    between atoms: _145  and  _146
REMARK   67  A    between atoms: _146  and  _147
REMARK   68  A    between atoms: _147  and  _148
REMARK   69  A    between atoms: _152  and  _154
REMARK   70  A    between atoms: _154  and  _155
REMARK   71  A    between atoms: _154  and  _157
REMARK   72  A    between atoms: _157  and  _158
REMARK   73  A    between atoms: _161  and  _163
REMARK   74  A    between atoms: _163  and  _164
REMARK   75  A    between atoms: _163  and  _166
REMARK   76  A    between atoms: _166  and  _167
REMARK   77  A    between atoms: _170  and  _172
REMARK   78  A    between atoms: _172  and  _173
REMARK   79  A    between atoms: _172  and  _175
REMARK   80  A    between atoms: _175  and  _176
REMARK   81  A    between atoms: _179  and  _181
REMARK   82  A    between atoms: _181  and  _182
REMARK   83  A    between atoms: _181  and  _184
REMARK   84  A    between atoms: _187  and  _189
REMARK   85  A    between atoms: _189  and  _190
REMARK   86  A    between atoms: _189  and  _192
REMARK   87  A    between atoms: _192  and  _193
REMARK   88  A    between atoms: _196  and  _198
REMARK   89  A    between atoms: _198  and  _199
REMARK   90  A    between atoms: _198  and  _201
REMARK   91  A    between atoms: _201  and  _202
REMARK   92  A    between atoms: _205  and  _207
REMARK   93  A    between atoms: _207  and  _208
REMARK   94  A    between atoms: _210  and  _212
REMARK   95  A    between atoms: _212  and  _213
REMARK   96  A    between atoms: _212  and  _215
REMARK   97  A    between atoms: _215  and  _216
REMARK   98  A    between atoms: _219  and  _221
REMARK   99  A    between atoms: _221  and  _222
REMARK  100  A    between atoms: _224  and  _226
REMARK  101  A    between atoms: _226  and  _227
REMARK  102  A    between atoms: _226  and  _229
REMARK  103  A    between atoms: _229  and  _230
REMARK  104  A    between atoms: _230  and  _231
REMARK  105  A    between atoms: _233  and  _235
REMARK  106  A    between atoms: _235  and  _236
REMARK  107  A    between atoms: _235  and  _238
REMARK  108  A    between atoms: _238  and  _239
REMARK  109  A    between atoms: _242  and  _244
REMARK  110  A    between atoms: _244  and  _245
REMARK  111  A    between atoms: _244  and  _247
REMARK  112  A    between atoms: _247  and  _248
REMARK  113  A    between atoms: _251  and  _253
REMARK  114  A    between atoms: _253  and  _254
REMARK  115  A    between atoms: _253  and  _256
REMARK  116  A    between atoms: _256  and  _257
REMARK  117  A    between atoms: _260  and  _262
REMARK  118  A    between atoms: _262  and  _263
REMARK  119  A    between atoms: _262  and  _265
REMARK  120  A    between atoms: _265  and  _266
REMARK  121  A    between atoms: _269  and  _271
REMARK  122  A    between atoms: _271  and  _272
REMARK  123  A    between atoms: _271  and  _274
REMARK  124  A    between atoms: _274  and  _275
REMARK  125  A    between atoms: _280  and  _282
REMARK  126  A    between atoms: _282  and  _283
REMARK  127  A    between atoms: _282  and  _285
REMARK  128  A    between atoms: _285  and  _286
REMARK  129  A    between atoms: _291  and  _293
REMARK  130  A    between atoms: _293  and  _294
REMARK  131  A    between atoms: _293  and  _296
REMARK  132  A    between atoms: _296  and  _297
REMARK  133  A    between atoms: _300  and  _302
REMARK  134  A    between atoms: _302  and  _303
REMARK  135  A    between atoms: _305  and  _307
REMARK  136  A    between atoms: _307  and  _308
REMARK  137  A    between atoms: _307  and  _310
REMARK  138  A    between atoms: _310  and  _311
REMARK  139  A    between atoms: _314  and  _316
REMARK  140  A    between atoms: _316  and  _317
REMARK  141  A    between atoms: _316  and  _319
REMARK  142  A    between atoms: _319  and  _320
REMARK  143  A    between atoms: _323  and  _325
REMARK  144  A    between atoms: _325  and  _326
REMARK  145  A    between atoms: _329  and  _331
REMARK  146  A    between atoms: _331  and  _332
REMARK  147  A    between atoms: _331  and  _334
REMARK  148  A    between atoms: _334  and  _335
REMARK  149  A    between atoms: _335  and  _336
REMARK  150  A    between atoms: _336  and  _337
REMARK  151  A    between atoms: _337  and  _338
REMARK  152  A    between atoms: _342  and  _344
REMARK  153  A    between atoms: _344  and  _345
REMARK  154  A    between atoms: _344  and  _347
REMARK  155  A    between atoms: _347  and  _348
REMARK  156  A    between atoms: _351  and  _353
REMARK  157  A    between atoms: _353  and  _354
REMARK  158  A    between atoms: _353  and  _356
REMARK  159  A    between atoms: _356  and  _357
REMARK  160  A    between atoms: _363  and  _365
REMARK  161  A    between atoms: _365  and  _366
REMARK  162  A    between atoms: _368  and  _370
REMARK  163  A    between atoms: _370  and  _371
REMARK  164  A    between atoms: _370  and  _373
REMARK  165  A    between atoms: _376  and  _378
REMARK  166  A    between atoms: _378  and  _379
REMARK  167  A    between atoms: _381  and  _383
REMARK  168  A    between atoms: _383  and  _384
REMARK  169  A    between atoms: _383  and  _386
REMARK  170  A    between atoms: _386  and  _387
REMARK  171  A    between atoms: _393  and  _395
REMARK  172  A    between atoms: _395  and  _396
REMARK  173  A    between atoms: _395  and  _398
REMARK  174  A    between atoms: _398  and  _399
REMARK  175  A    between atoms: _404  and  _405
REMARK  176  A    between atoms: _407  and  _409
REMARK  177  A    between atoms: _409  and  _410
REMARK  178  A    between atoms: _409  and  _412
REMARK  179  A    between atoms: _412  and  _413
REMARK  180  A    between atoms: _415  and  _417
REMARK  181  A    between atoms: _417  and  _418
REMARK  182  A    between atoms: _417  and  _420
REMARK  183  A    between atoms: _420  and  _421
REMARK  184  A    between atoms: _426  and  _427
REMARK  185  A    between atoms: _429  and  _431
REMARK  186  A    between atoms: _431  and  _432
REMARK  187  A    between atoms: _431  and  _434
REMARK  188  A    between atoms: _437  and  _439
REMARK  189  A    between atoms: _439  and  _440
REMARK  190  A    between atoms: _439  and  _442
REMARK  191  A    between atoms: _442  and  _443
REMARK  192  A    between atoms: _446  and  _448
REMARK  193  A    between atoms: _448  and  _449
REMARK  194  A    between atoms: _448  and  _451
REMARK  195  A    between atoms: _454  and  _456
REMARK  196  A    between atoms: _456  and  _457
REMARK  197  A    between atoms: _456  and  _459
REMARK  198  A    between atoms: _459  and  _460
REMARK  199  A    between atoms: _463  and  _465
REMARK  200  A    between atoms: _465  and  _466
REMARK  201  A    between atoms: _465  and  _468
REMARK  202  A    between atoms: _468  and  _469
REMARK  203  A    between atoms: _472  and  _474
REMARK  204  A    between atoms: _474  and  _475
REMARK  205  A    between atoms: _474  and  _477
REMARK  206  A    between atoms: _477  and  _478
REMARK  207  A    between atoms: _478  and  _479
REMARK  208  A    between atoms: _479  and  _480
REMARK  209  A    between atoms: _480  and  _481
REMARK  210  A    between atoms: _485  and  _487
REMARK  211  A    between atoms: _487  and  _488
REMARK  212  A    between atoms: _487  and  _490
REMARK  213  A    between atoms: _490  and  _491
REMARK  214  A    between atoms: _496  and  _498
REMARK  215  A    between atoms: _498  and  _499
REMARK  216  A    between atoms: _498  and  _501
REMARK  217  A    between atoms: _501  and  _502
REMARK  218  A    between atoms: _512  and  _514
REMARK  219  A    between atoms: _514  and  _515
REMARK  220  A    between atoms: _514  and  _517
REMARK  221  A    between atoms: _517  and  _518
REMARK  222  A    between atoms: _518  and  _519
REMARK  223  A    between atoms: _522  and  _524
REMARK  224  A    between atoms: _524  and  _525
REMARK  225  A    between atoms: _524  and  _527
REMARK  226  A    between atoms: _527  and  _528
REMARK  227  A    between atoms: _530  and  _532
REMARK  228  A    between atoms: _532  and  _533
REMARK  229  A    between atoms: _532  and  _535
REMARK  230  A    between atoms: _535  and  _536
REMARK  231  A    between atoms: _542  and  _544
REMARK  232  A    between atoms: _544  and  _545
REMARK  233  A    between atoms: _544  and  _547
REMARK  234  A    between atoms: _547  and  _548
REMARK  235  A    between atoms: _551  and  _553
REMARK  236  A    between atoms: _553  and  _554
REMARK  237  A    between atoms: _553  and  _556
REMARK  238  A    between atoms: _559  and  _561
REMARK  239  A    between atoms: _561  and  _562
REMARK  240  A    between atoms: _564  and  _566
REMARK  241  A    between atoms: _566  and  _567
REMARK  242  A    between atoms: _566  and  _569
REMARK  243  A    between atoms: _569  and  _570
REMARK  244  A    between atoms: _573  and  _575
REMARK  245  A    between atoms: _575  and  _576
REMARK  246  A    between atoms: _575  and  _578
REMARK  247  A    between atoms: _578  and  _579
REMARK  248  A    between atoms: _579  and  _580
REMARK  249  A    between atoms: _580  and  _581
REMARK  250  A    between atoms: _581  and  _582
REMARK  251  A    between atoms: _586  and  _588
REMARK  252  A    between atoms: _588  and  _589
REMARK  253  A    between atoms: _588  and  _591
REMARK                            x       y       z     vdW  Elec       q    Type
REMARK                         _______ _______ _______ _____ _____    ______ ____
ROOT
ATOM      1  O   HOH     1       4.641  -9.032 -19.855  0.00  0.00    +0.000 OA
ENDROOT
TORSDOF 0
REMARK  Name = ../refined-set-2016/3d0b/3d0b_pocket.pdb
REMARK  253 active torsions:
REMARK  status: ('A' for Active; 'I' for Inactive)
REMARK    1  A    between atoms: _1  and  _3
REMARK    2  A    between atoms: _3  and  _4
REMARK    3  A    between atoms: _3  and  _6
REMARK    4  A    between atoms: _6  and  _7
REMARK    5  A    between atoms: _13  and  _15
REMARK    6  A    between atoms: _15  and  _16
REMARK    7  A    between atoms: _15  and  _18
REMARK    8  A    between atoms: _18  and  _19
REMARK    9  A    between atoms: _19  and  _20
REMARK   10  A    between atoms: _25  and  _27
REMARK   11  A    between atoms: _27  and  _28
REMARK   12  A    between atoms: _27  and  _30
REMARK   13  A    between atoms: _30  and  _31
REMARK   14  A    between atoms: _34  and  _36
REMARK   15  A    between atoms: _36  and  _37
REMARK   16  A    between atoms: _36  and  _39
REMARK   17  A    between atoms: _39  and  _40
REMARK   18  A    between atoms: _40  and  _41
REMARK   19  A    between atoms: _43  and  _45
REMARK   20  A    between atoms: _45  and  _46
REMARK   21  A    between atoms: _45  and  _48
REMARK   22  A    between atoms: _48  and  _49
REMARK   23  A    between atoms: _49  and  _50
REMARK   24  A    between atoms: _53  and  _55
REMARK   25  A    between atoms: _55  and  _56
REMARK   26  A    between atoms: _55  and  _58
REMARK   27  A    between atoms: _58  and  _59
REMARK   28  A    between atoms: _62  and  _64
REMARK   29  A    between atoms: _64  and  _65
REMARK   30  A    between atoms: _64  and  _67
REMARK   31  A    between atoms: _67  and  _68
REMARK   32  A    between atoms: _71  and  _73
REMARK   33  A    between atoms: _73  and  _74
REMARK   34  A    between atoms: _73  and  _76
REMARK   35  A    between atoms: _76  and  _77
REMARK   36  A    between atoms: _79  and  _81
REMARK   37  A    between atoms: _81  and  _82
REMARK   38  A    between atoms: _81  and  _84
REMARK   39  A    between atoms: _84  and  _85
REMARK   40  A    between atoms: _90  and  _92
REMARK   41  A    between atoms: _92  and  _93
REMARK   42  A    between atoms: _92  and  _95
REMARK   43  A    between atoms: _95  and  _96
REMARK   44  A    between atoms: _98  and  _100
REMARK   45  A    between atoms: _100  and  _101
REMARK   46  A    between atoms: _100  and  _103
REMARK   47  A    between atoms: _103  and  _104
REMARK   48  A    between atoms: _106  and  _108
REMARK   49  A    between atoms: _108  and  _109
REMARK   50  A    between atoms: _108  and  _111
REMARK   51  A    between atoms: _111  and  _112
REMARK   52  A    between atoms: _115  and  _117
REMARK   53  A    between atoms: _117  and  _118
REMARK   54  A    between atoms: _121  and  _123
REMARK   55  A    between atoms: _123  and  _124
REMARK   56  A    between atoms: _123  and  _126
REMARK   57  A    between atoms: _126  and  _127
REMARK   58  A    between atoms: _130  and  _132
REMARK   59  A    between atoms: _132  and  _133
REMARK   60  A    between atoms: _132  and  _135
REMARK   61  A    between atoms: _135  and  _136
REMARK   62  A    between atoms: _139  and  _141
REMARK   63  A    between atoms: _141  and  _142
REMARK   64  A    between atoms: _141  and  _144
REMARK   65  A    between atoms: _144  and  _145
REMARK   66  A    between atoms: _145  and  _146
REMARK   67  A    between atoms: _146  and  _147
REMARK   68  A    between atoms: _147  and  _148
REMARK   69  A    between atoms: _152  and  _154
REMARK   70  A    between atoms: _154  and  _155
REMARK   71  A    between atoms: _154  and  _157
REMARK   72  A    between atoms: _157  and  _158
REMARK   73  A    between atoms: _161  and  _163
REMARK   74  A    between atoms: _163  and  _164
REMARK   75  A    between atoms: _163  and  _166
REMARK   76  A    between atoms: _166  and  _167
REMARK   77  A    between atoms: _170  and  _172
REMARK   78  A    between atoms: _172  and  _173
REMARK   79  A    between atoms: _172  and  _175
REMARK   80  A    between atoms: _175  and  _176
REMARK   81  A    between atoms: _179  and  _181
REMARK   82  A    between atoms: _181  and  _182
REMARK   83  A    between atoms: _181  and  _184
REMARK   84  A    between atoms: _187  and  _189
REMARK   85  A    between atoms: _189  and  _190
REMARK   86  A    between atoms: _189  and  _192
REMARK   87  A    between atoms: _192  and  _193
REMARK   88  A    between atoms: _196  and  _198
REMARK   89  A    between atoms: _198  and  _199
REMARK   90  A    between atoms: _198  and  _201
REMARK   91  A    between atoms: _201  and  _202
REMARK   92  A    between atoms: _205  and  _207
REMARK   93  A    between atoms: _207  and  _208
REMARK   94  A    between atoms: _210  and  _212
REMARK   95  A    between atoms: _212  and  _213
REMARK   96  A    between atoms: _212  and  _215
REMARK   97  A    between atoms: _215  and  _216
REMARK   98  A    between atoms: _219  and  _221
REMARK   99  A    between atoms: _221  and  _222
REMARK  100  A    between atoms: _224  and  _226
REMARK  101  A    between atoms: _226  and  _227
REMARK  102  A    between atoms: _226  and  _229
REMARK  103  A    between atoms: _229  and  _230
REMARK  104  A    between atoms: _230  and  _231
REMARK  105  A    between atoms: _233  and  _235
REMARK  106  A    between atoms: _235  and  _236
REMARK  107  A    between atoms: _235  and  _238
REMARK  108  A    between atoms: _238  and  _239
REMARK  109  A    between atoms: _242  and  _244
REMARK  110  A    between atoms: _244  and  _245
REMARK  111  A    between atoms: _244  and  _247
REMARK  112  A    between atoms: _247  and  _248
REMARK  113  A    between atoms: _251  and  _253
REMARK  114  A    between atoms: _253  and  _254
REMARK  115  A    between atoms: _253  and  _256
REMARK  116  A    between atoms: _256  and  _257
REMARK  117  A    between atoms: _260  and  _262
REMARK  118  A    between atoms: _262  and  _263
REMARK  119  A    between atoms: _262  and  _265
REMARK  120  A    between atoms: _265  and  _266
REMARK  121  A    between atoms: _269  and  _271
REMARK  122  A    between atoms: _271  and  _272
REMARK  123  A    between atoms: _271  and  _274
REMARK  124  A    between atoms: _274  and  _275
REMARK  125  A    between atoms: _280  and  _282
REMARK  126  A    between atoms: _282  and  _283
REMARK  127  A    between atoms: _282  and  _285
REMARK  128  A    between atoms: _285  and  _286
REMARK  129  A    between atoms: _291  and  _293
REMARK  130  A    between atoms: _293  and  _294
REMARK  131  A    between atoms: _293  and  _296
REMARK  132  A    between atoms: _296  and  _297
REMARK  133  A    between atoms: _300  and  _302
REMARK  134  A    between atoms: _302  and  _303
REMARK  135  A    between atoms: _305  and  _307
REMARK  136  A    between atoms: _307  and  _308
REMARK  137  A    between atoms: _307  and  _310
REMARK  138  A    between atoms: _310  and  _311
REMARK  139  A    between atoms: _314  and  _316
REMARK  140  A    between atoms: _316  and  _317
REMARK  141  A    between atoms: _316  and  _319
REMARK  142  A    between atoms: _319  and  _320
REMARK  143  A    between atoms: _323  and  _325
REMARK  144  A    between atoms: _325  and  _326
REMARK  145  A    between atoms: _329  and  _331
REMARK  146  A    between atoms: _331  and  _332
REMARK  147  A    between atoms: _331  and  _334
REMARK  148  A    between atoms: _334  and  _335
REMARK  149  A    between atoms: _335  and  _336
REMARK  150  A    between atoms: _336  and  _337
REMARK  151  A    between atoms: _337  and  _338
REMARK  152  A    between atoms: _342  and  _344
REMARK  153  A    between atoms: _344  and  _345
REMARK  154  A    between atoms: _344  and  _347
REMARK  155  A    between atoms: _347  and  _348
REMARK  156  A    between atoms: _351  and  _353
REMARK  157  A    between atoms: _353  and  _354
REMARK  158  A    between atoms: _353  and  _356
REMARK  159  A    between atoms: _356  and  _357
REMARK  160  A    between atoms: _363  and  _365
REMARK  161  A    between atoms: _365  and  _366
REMARK  162  A    between atoms: _368  and  _370
REMARK  163  A    between atoms: _370  and  _371
REMARK  164  A    between atoms: _370  and  _373
REMARK  165  A    between atoms: _376  and  _378
REMARK  166  A    between atoms: _378  and  _379
REMARK  167  A    between atoms: _381  and  _383
REMARK  168  A    between atoms: _383  and  _384
REMARK  169  A    between atoms: _383  and  _386
REMARK  170  A    between atoms: _386  and  _387
REMARK  171  A    between atoms: _393  and  _395
REMARK  172  A    between atoms: _395  and  _396
REMARK  173  A    between atoms: _395  and  _398
REMARK  174  A    between atoms: _398  and  _399
REMARK  175  A    between atoms: _404  and  _405
REMARK  176  A    between atoms: _407  and  _409
REMARK  177  A    between atoms: _409  and  _410
REMARK  178  A    between atoms: _409  and  _412
REMARK  179  A    between atoms: _412  and  _413
REMARK  180  A    between atoms: _415  and  _417
REMARK  181  A    between atoms: _417  and  _418
REMARK  182  A    between atoms: _417  and  _420
REMARK  183  A    between atoms: _420  and  _421
REMARK  184  A    between atoms: _426  and  _427
REMARK  185  A    between atoms: _429  and  _431
REMARK  186  A    between atoms: _431  and  _432
REMARK  187  A    between atoms: _431  and  _434
REMARK  188  A    between atoms: _437  and  _439
REMARK  189  A    between atoms: _439  and  _440
REMARK  190  A    between atoms: _439  and  _442
REMARK  191  A    between atoms: _442  and  _443
REMARK  192  A    between atoms: _446  and  _448
REMARK  193  A    between atoms: _448  and  _449
REMARK  194  A    between atoms: _448  and  _451
REMARK  195  A    between atoms: _454  and  _456
REMARK  196  A    between atoms: _456  and  _457
REMARK  197  A    between atoms: _456  and  _459
REMARK  198  A    between atoms: _459  and  _460
REMARK  199  A    between atoms: _463  and  _465
REMARK  200  A    between atoms: _465  and  _466
REMARK  201  A    between atoms: _465  and  _468
REMARK  202  A    between atoms: _468  and  _469
REMARK  203  A    between atoms: _472  and  _474
REMARK  204  A    between atoms: _474  and  _475
REMARK  205  A    between atoms: _474  and  _477
REMARK  206  A    between atoms: _477  and  _478
REMARK  207  A    between atoms: _478  and  _479
REMARK  208  A    between atoms: _479  and  _480
REMARK  209  A    between atoms: _480  and  _481
REMARK  210  A    between atoms: _485  and  _487
REMARK  211  A    between atoms: _487  and  _488
REMARK  212  A    between atoms: _487  and  _490
REMARK  213  A    between atoms: _490  and  _491
REMARK  214  A    between atoms: _496  and  _498
REMARK  215  A    between atoms: _498  and  _499
REMARK  216  A    between atoms: _498  and  _501
REMARK  217  A    between atoms: _501  and  _502
REMARK  218  A    between atoms: _512  and  _514
REMARK  219  A    between atoms: _514  and  _515
REMARK  220  A    between atoms: _514  and  _517
REMARK  221  A    between atoms: _517  and  _518
REMARK  222  A    between atoms: _518  and  _519
REMARK  223  A    between atoms: _522  and  _524
REMARK  224  A    between atoms: _524  and  _525
REMARK  225  A    between atoms: _524  and  _527
REMARK  226  A    between atoms: _527  and  _528
REMARK  227  A    between atoms: _530  and  _532
REMARK  228  A    between atoms: _532  and  _533
REMARK  229  A    between atoms: _532  and  _535
REMARK  230  A    between atoms: _535  and  _536
REMARK  231  A    between atoms: _542  and  _544
REMARK  232  A    between atoms: _544  and  _545
REMARK  233  A    between atoms: _544  and  _547
REMARK  234  A    between atoms: _547  and  _548
REMARK  235  A    between atoms: _551  and  _553
REMARK  236  A    between atoms: _553  and  _554
REMARK  237  A    between atoms: _553  and  _556
REMARK  238  A    between atoms: _559  and  _561
REMARK  239  A    between atoms: _561  and  _562
REMARK  240  A    between atoms: _564  and  _566
REMARK  241  A    between atoms: _566  and  _567
REMARK  242  A    between atoms: _566  and  _569
REMARK  243  A    between atoms: _569  and  _570
REMARK  244  A    between atoms: _573  and  _575
REMARK  245  A    between atoms: _575  and  _576
REMARK  246  A    between atoms: _575  and  _578
REMARK  247  A    between atoms: _578  and  _579
REMARK  248  A    between atoms: _579  and  _580
REMARK  249  A    between atoms: _580  and  _581
REMARK  250  A    between atoms: _581  and  _582
REMARK  251  A    between atoms: _586  and  _588
REMARK  252  A    between atoms: _588  and  _589
REMARK  253  A    between atoms: _588  and  _591
REMARK                            x       y       z     vdW  Elec       q    Type
REMARK                         _______ _______ _______ _____ _____    ______ ____
ROOT
ATOM      1  O   HOH     1       2.050  -8.008 -16.997  0.00  0.00    +0.000 OA
ENDROOT
TORSDOF 0
REMARK  Name = ../refined-set-2016/3d0b/3d0b_pocket.pdb
REMARK  253 active torsions:
REMARK  status: ('A' for Active; 'I' for Inactive)
REMARK    1  A    between atoms: _1  and  _3
REMARK    2  A    between atoms: _3  and  _4
REMARK    3  A    between atoms: _3  and  _6
REMARK    4  A    between atoms: _6  and  _7
REMARK    5  A    between atoms: _13  and  _15
REMARK    6  A    between atoms: _15  and  _16
REMARK    7  A    between atoms: _15  and  _18
REMARK    8  A    between atoms: _18  and  _19
REMARK    9  A    between atoms: _19  and  _20
REMARK   10  A    between atoms: _25  and  _27
REMARK   11  A    between atoms: _27  and  _28
REMARK   12  A    between atoms: _27  and  _30
REMARK   13  A    between atoms: _30  and  _31
REMARK   14  A    between atoms: _34  and  _36
REMARK   15  A    between atoms: _36  and  _37
REMARK   16  A    between atoms: _36  and  _39
REMARK   17  A    between atoms: _39  and  _40
REMARK   18  A    between atoms: _40  and  _41
REMARK   19  A    between atoms: _43  and  _45
REMARK   20  A    between atoms: _45  and  _46
REMARK   21  A    between atoms: _45  and  _48
REMARK   22  A    between atoms: _48  and  _49
REMARK   23  A    between atoms: _49  and  _50
REMARK   24  A    between atoms: _53  and  _55
REMARK   25  A    between atoms: _55  and  _56
REMARK   26  A    between atoms: _55  and  _58
REMARK   27  A    between atoms: _58  and  _59
REMARK   28  A    between atoms: _62  and  _64
REMARK   29  A    between atoms: _64  and  _65
REMARK   30  A    between atoms: _64  and  _67
REMARK   31  A    between atoms: _67  and  _68
REMARK   32  A    between atoms: _71  and  _73
REMARK   33  A    between atoms: _73  and  _74
REMARK   34  A    between atoms: _73  and  _76
REMARK   35  A    between atoms: _76  and  _77
REMARK   36  A    between atoms: _79  and  _81
REMARK   37  A    between atoms: _81  and  _82
REMARK   38  A    between atoms: _81  and  _84
REMARK   39  A    between atoms: _84  and  _85
REMARK   40  A    between atoms: _90  and  _92
REMARK   41  A    between atoms: _92  and  _93
REMARK   42  A    between atoms: _92  and  _95
REMARK   43  A    between atoms: _95  and  _96
REMARK   44  A    between atoms: _98  and  _100
REMARK   45  A    between atoms: _100  and  _101
REMARK   46  A    between atoms: _100  and  _103
REMARK   47  A    between atoms: _103  and  _104
REMARK   48  A    between atoms: _106  and  _108
REMARK   49  A    between atoms: _108  and  _109
REMARK   50  A    between atoms: _108  and  _111
REMARK   51  A    between atoms: _111  and  _112
REMARK   52  A    between atoms: _115  and  _117
REMARK   53  A    between atoms: _117  and  _118
REMARK   54  A    between atoms: _121  and  _123
REMARK   55  A    between atoms: _123  and  _124
REMARK   56  A    between atoms: _123  and  _126
REMARK   57  A    between atoms: _126  and  _127
REMARK   58  A    between atoms: _130  and  _132
REMARK   59  A    between atoms: _132  and  _133
REMARK   60  A    between atoms: _132  and  _135
REMARK   61  A    between atoms: _135  and  _136
REMARK   62  A    between atoms: _139  and  _141
REMARK   63  A    between atoms: _141  and  _142
REMARK   64  A    between atoms: _141  and  _144
REMARK   65  A    between atoms: _144  and  _145
REMARK   66  A    between atoms: _145  and  _146
REMARK   67  A    between atoms: _146  and  _147
REMARK   68  A    between atoms: _147  and  _148
REMARK   69  A    between atoms: _152  and  _154
REMARK   70  A    between atoms: _154  and  _155
REMARK   71  A    between atoms: _154  and  _157
REMARK   72  A    between atoms: _157  and  _158
REMARK   73  A    between atoms: _161  and  _163
REMARK   74  A    between atoms: _163  and  _164
REMARK   75  A    between atoms: _163  and  _166
REMARK   76  A    between atoms: _166  and  _167
REMARK   77  A    between atoms: _170  and  _172
REMARK   78  A    between atoms: _172  and  _173
REMARK   79  A    between atoms: _172  and  _175
REMARK   80  A    between atoms: _175  and  _176
REMARK   81  A    between atoms: _179  and  _181
REMARK   82  A    between atoms: _181  and  _182
REMARK   83  A    between atoms: _181  and  _184
REMARK   84  A    between atoms: _187  and  _189
REMARK   85  A    between atoms: _189  and  _190
REMARK   86  A    between atoms: _189  and  _192
REMARK   87  A    between atoms: _192  and  _193
REMARK   88  A    between atoms: _196  and  _198
REMARK   89  A    between atoms: _198  and  _199
REMARK   90  A    between atoms: _198  and  _201
REMARK   91  A    between atoms: _201  and  _202
REMARK   92  A    between atoms: _205  and  _207
REMARK   93  A    between atoms: _207  and  _208
REMARK   94  A    between atoms: _210  and  _212
REMARK   95  A    between atoms: _212  and  _213
REMARK   96  A    between atoms: _212  and  _215
REMARK   97  A    between atoms: _215  and  _216
REMARK   98  A    between atoms: _219  and  _221
REMARK   99  A    between atoms: _221  and  _222
REMARK  100  A    between atoms: _224  and  _226
REMARK  101  A    between atoms: _226  and  _227
REMARK  102  A    between atoms: _226  and  _229
REMARK  103  A    between atoms: _229  and  _230
REMARK  104  A    between atoms: _230  and  _231
REMARK  105  A    between atoms: _233  and  _235
REMARK  106  A    between atoms: _235  and  _236
REMARK  107  A    between atoms: _235  and  _238
REMARK  108  A    between atoms: _238  and  _239
REMARK  109  A    between atoms: _242  and  _244
REMARK  110  A    between atoms: _244  and  _245
REMARK  111  A    between atoms: _244  and  _247
REMARK  112  A    between atoms: _247  and  _248
REMARK  113  A    between atoms: _251  and  _253
REMARK  114  A    between atoms: _253  and  _254
REMARK  115  A    between atoms: _253  and  _256
REMARK  116  A    between atoms: _256  and  _257
REMARK  117  A    between atoms: _260  and  _262
REMARK  118  A    between atoms: _262  and  _263
REMARK  119  A    between atoms: _262  and  _265
REMARK  120  A    between atoms: _265  and  _266
REMARK  121  A    between atoms: _269  and  _271
REMARK  122  A    between atoms: _271  and  _272
REMARK  123  A    between atoms: _271  and  _274
REMARK  124  A    between atoms: _274  and  _275
REMARK  125  A    between atoms: _280  and  _282
REMARK  126  A    between atoms: _282  and  _283
REMARK  127  A    between atoms: _282  and  _285
REMARK  128  A    between atoms: _285  and  _286
REMARK  129  A    between atoms: _291  and  _293
REMARK  130  A    between atoms: _293  and  _294
REMARK  131  A    between atoms: _293  and  _296
REMARK  132  A    between atoms: _296  and  _297
REMARK  133  A    between atoms: _300  and  _302
REMARK  134  A    between atoms: _302  and  _303
REMARK  135  A    between atoms: _305  and  _307
REMARK  136  A    between atoms: _307  and  _308
REMARK  137  A    between atoms: _307  and  _310
REMARK  138  A    between atoms: _310  and  _311
REMARK  139  A    between atoms: _314  and  _316
REMARK  140  A    between atoms: _316  and  _317
REMARK  141  A    between atoms: _316  and  _319
REMARK  142  A    between atoms: _319  and  _320
REMARK  143  A    between atoms: _323  and  _325
REMARK  144  A    between atoms: _325  and  _326
REMARK  145  A    between atoms: _329  and  _331
REMARK  146  A    between atoms: _331  and  _332
REMARK  147  A    between atoms: _331  and  _334
REMARK  148  A    between atoms: _334  and  _335
REMARK  149  A    between atoms: _335  and  _336
REMARK  150  A    between atoms: _336  and  _337
REMARK  151  A    between atoms: _337  and  _338
REMARK  152  A    between atoms: _342  and  _344
REMARK  153  A    between atoms: _344  and  _345
REMARK  154  A    between atoms: _344  and  _347
REMARK  155  A    between atoms: _347  and  _348
REMARK  156  A    between atoms: _351  and  _353
REMARK  157  A    between atoms: _353  and  _354
REMARK  158  A    between atoms: _353  and  _356
REMARK  159  A    between atoms: _356  and  _357
REMARK  160  A    between atoms: _363  and  _365
REMARK  161  A    between atoms: _365  and  _366
REMARK  162  A    between atoms: _368  and  _370
REMARK  163  A    between atoms: _370  and  _371
REMARK  164  A    between atoms: _370  and  _373
REMARK  165  A    between atoms: _376  and  _378
REMARK  166  A    between atoms: _378  and  _379
REMARK  167  A    between atoms: _381  and  _383
REMARK  168  A    between atoms: _383  and  _384
REMARK  169  A    between atoms: _383  and  _386
REMARK  170  A    between atoms: _386  and  _387
REMARK  171  A    between atoms: _393  and  _395
REMARK  172  A    between atoms: _395  and  _396
REMARK  173  A    between atoms: _395  and  _398
REMARK  174  A    between atoms: _398  and  _399
REMARK  175  A    between atoms: _404  and  _405
REMARK  176  A    between atoms: _407  and  _409
REMARK  177  A    between atoms: _409  and  _410
REMARK  178  A    between atoms: _409  and  _412
REMARK  179  A    between atoms: _412  and  _413
REMARK  180  A    between atoms: _415  and  _417
REMARK  181  A    between atoms: _417  and  _418
REMARK  182  A    between atoms: _417  and  _420
REMARK  183  A    between atoms: _420  and  _421
REMARK  184  A    between atoms: _426  and  _427
REMARK  185  A    between atoms: _429  and  _431
REMARK  186  A    between atoms: _431  and  _432
REMARK  187  A    between atoms: _431  and  _434
REMARK  188  A    between atoms: _437  and  _439
REMARK  189  A    between atoms: _439  and  _440
REMARK  190  A    between atoms: _439  and  _442
REMARK  191  A    between atoms: _442  and  _443
REMARK  192  A    between atoms: _446  and  _448
REMARK  193  A    between atoms: _448  and  _449
REMARK  194  A    between atoms: _448  and  _451
REMARK  195  A    between atoms: _454  and  _456
REMARK  196  A    between atoms: _456  and  _457
REMARK  197  A    between atoms: _456  and  _459
REMARK  198  A    between atoms: _459  and  _460
REMARK  199  A    between atoms: _463  and  _465
REMARK  200  A    between atoms: _465  and  _466
REMARK  201  A    between atoms: _465  and  _468
REMARK  202  A    between atoms: _468  and  _469
REMARK  203  A    between atoms: _472  and  _474
REMARK  204  A    between atoms: _474  and  _475
REMARK  205  A    between atoms: _474  and  _477
REMARK  206  A    between atoms: _477  and  _478
REMARK  207  A    between atoms: _478  and  _479
REMARK  208  A    between atoms: _479  and  _480
REMARK  209  A    between atoms: _480  and  _481
REMARK  210  A    between atoms: _485  and  _487
REMARK  211  A    between atoms: _487  and  _488
REMARK  212  A    between atoms: _487  and  _490
REMARK  213  A    between atoms: _490  and  _491
REMARK  214  A    between atoms: _496  and  _498
REMARK  215  A    between atoms: _498  and  _499
REMARK  216  A    between atoms: _498  and  _501
REMARK  217  A    between atoms: _501  and  _502
REMARK  218  A    between atoms: _512  and  _514
REMARK  219  A    between atoms: _514  and  _515
REMARK  220  A    between atoms: _514  and  _517
REMARK  221  A    between atoms: _517  and  _518
REMARK  222  A    between atoms: _518  and  _519
REMARK  223  A    between atoms: _522  and  _524
REMARK  224  A    between atoms: _524  and  _525
REMARK  225  A    between atoms: _524  and  _527
REMARK  226  A    between atoms: _527  and  _528
REMARK  227  A    between atoms: _530  and  _532
REMARK  228  A    between atoms: _532  and  _533
REMARK  229  A    between atoms: _532  and  _535
REMARK  230  A    between atoms: _535  and  _536
REMARK  231  A    between atoms: _542  and  _544
REMARK  232  A    between atoms: _544  and  _545
REMARK  233  A    between atoms: _544  and  _547
REMARK  234  A    between atoms: _547  and  _548
REMARK  235  A    between atoms: _551  and  _553
REMARK  236  A    between atoms: _553  and  _554
REMARK  237  A    between atoms: _553  and  _556
REMARK  238  A    between atoms: _559  and  _561
REMARK  239  A    between atoms: _561  and  _562
REMARK  240  A    between atoms: _564  and  _566
REMARK  241  A    between atoms: _566  and  _567
REMARK  242  A    between atoms: _566  and  _569
REMARK  243  A    between atoms: _569  and  _570
REMARK  244  A    between atoms: _573  and  _575
REMARK  245  A    between atoms: _575  and  _576
REMARK  246  A    between atoms: _575  and  _578
REMARK  247  A    between atoms: _578  and  _579
REMARK  248  A    between atoms: _579  and  _580
REMARK  249  A    between atoms: _580  and  _581
REMARK  250  A    between atoms: _581  and  _582
REMARK  251  A    between atoms: _586  and  _588
REMARK  252  A    between atoms: _588  and  _589
REMARK  253  A    between atoms: _588  and  _591
REMARK                            x       y       z     vdW  Elec       q    Type
REMARK                         _______ _______ _______ _____ _____    ______ ____
ROOT
ATOM      1  O   HOH     1       1.338  -8.236 -31.019  0.00  0.00    +0.000 OA
ENDROOT
TORSDOF 0
REMARK  Name = ../refined-set-2016/3d0b/3d0b_pocket.pdb
REMARK  253 active torsions:
REMARK  status: ('A' for Active; 'I' for Inactive)
REMARK    1  A    between atoms: _1  and  _3
REMARK    2  A    between atoms: _3  and  _4
REMARK    3  A    between atoms: _3  and  _6
REMARK    4  A    between atoms: _6  and  _7
REMARK    5  A    between atoms: _13  and  _15
REMARK    6  A    between atoms: _15  and  _16
REMARK    7  A    between atoms: _15  and  _18
REMARK    8  A    between atoms: _18  and  _19
REMARK    9  A    between atoms: _19  and  _20
REMARK   10  A    between atoms: _25  and  _27
REMARK   11  A    between atoms: _27  and  _28
REMARK   12  A    between atoms: _27  and  _30
REMARK   13  A    between atoms: _30  and  _31
REMARK   14  A    between atoms: _34  and  _36
REMARK   15  A    between atoms: _36  and  _37
REMARK   16  A    between atoms: _36  and  _39
REMARK   17  A    between atoms: _39  and  _40
REMARK   18  A    between atoms: _40  and  _41
REMARK   19  A    between atoms: _43  and  _45
REMARK   20  A    between atoms: _45  and  _46
REMARK   21  A    between atoms: _45  and  _48
REMARK   22  A    between atoms: _48  and  _49
REMARK   23  A    between atoms: _49  and  _50
REMARK   24  A    between atoms: _53  and  _55
REMARK   25  A    between atoms: _55  and  _56
REMARK   26  A    between atoms: _55  and  _58
REMARK   27  A    between atoms: _58  and  _59
REMARK   28  A    between atoms: _62  and  _64
REMARK   29  A    between atoms: _64  and  _65
REMARK   30  A    between atoms: _64  and  _67
REMARK   31  A    between atoms: _67  and  _68
REMARK   32  A    between atoms: _71  and  _73
REMARK   33  A    between atoms: _73  and  _74
REMARK   34  A    between atoms: _73  and  _76
REMARK   35  A    between atoms: _76  and  _77
REMARK   36  A    between atoms: _79  and  _81
REMARK   37  A    between atoms: _81  and  _82
REMARK   38  A    between atoms: _81  and  _84
REMARK   39  A    between atoms: _84  and  _85
REMARK   40  A    between atoms: _90  and  _92
REMARK   41  A    between atoms: _92  and  _93
REMARK   42  A    between atoms: _92  and  _95
REMARK   43  A    between atoms: _95  and  _96
REMARK   44  A    between atoms: _98  and  _100
REMARK   45  A    between atoms: _100  and  _101
REMARK   46  A    between atoms: _100  and  _103
REMARK   47  A    between atoms: _103  and  _104
REMARK   48  A    between atoms: _106  and  _108
REMARK   49  A    between atoms: _108  and  _109
REMARK   50  A    between atoms: _108  and  _111
REMARK   51  A    between atoms: _111  and  _112
REMARK   52  A    between atoms: _115  and  _117
REMARK   53  A    between atoms: _117  and  _118
REMARK   54  A    between atoms: _121  and  _123
REMARK   55  A    between atoms: _123  and  _124
REMARK   56  A    between atoms: _123  and  _126
REMARK   57  A    between atoms: _126  and  _127
REMARK   58  A    between atoms: _130  and  _132
REMARK   59  A    between atoms: _132  and  _133
REMARK   60  A    between atoms: _132  and  _135
REMARK   61  A    between atoms: _135  and  _136
REMARK   62  A    between atoms: _139  and  _141
REMARK   63  A    between atoms: _141  and  _142
REMARK   64  A    between atoms: _141  and  _144
REMARK   65  A    between atoms: _144  and  _145
REMARK   66  A    between atoms: _145  and  _146
REMARK   67  A    between atoms: _146  and  _147
REMARK   68  A    between atoms: _147  and  _148
REMARK   69  A    between atoms: _152  and  _154
REMARK   70  A    between atoms: _154  and  _155
REMARK   71  A    between atoms: _154  and  _157
REMARK   72  A    between atoms: _157  and  _158
REMARK   73  A    between atoms: _161  and  _163
REMARK   74  A    between atoms: _163  and  _164
REMARK   75  A    between atoms: _163  and  _166
REMARK   76  A    between atoms: _166  and  _167
REMARK   77  A    between atoms: _170  and  _172
REMARK   78  A    between atoms: _172  and  _173
REMARK   79  A    between atoms: _172  and  _175
REMARK   80  A    between atoms: _175  and  _176
REMARK   81  A    between atoms: _179  and  _181
REMARK   82  A    between atoms: _181  and  _182
REMARK   83  A    between atoms: _181  and  _184
REMARK   84  A    between atoms: _187  and  _189
REMARK   85  A    between atoms: _189  and  _190
REMARK   86  A    between atoms: _189  and  _192
REMARK   87  A    between atoms: _192  and  _193
REMARK   88  A    between atoms: _196  and  _198
REMARK   89  A    between atoms: _198  and  _199
REMARK   90  A    between atoms: _198  and  _201
REMARK   91  A    between atoms: _201  and  _202
REMARK   92  A    between atoms: _205  and  _207
REMARK   93  A    between atoms: _207  and  _208
REMARK   94  A    between atoms: _210  and  _212
REMARK   95  A    between atoms: _212  and  _213
REMARK   96  A    between atoms: _212  and  _215
REMARK   97  A    between atoms: _215  and  _216
REMARK   98  A    between atoms: _219  and  _221
REMARK   99  A    between atoms: _221  and  _222
REMARK  100  A    between atoms: _224  and  _226
REMARK  101  A    between atoms: _226  and  _227
REMARK  102  A    between atoms: _226  and  _229
REMARK  103  A    between atoms: _229  and  _230
REMARK  104  A    between atoms: _230  and  _231
REMARK  105  A    between atoms: _233  and  _235
REMARK  106  A    between atoms: _235  and  _236
REMARK  107  A    between atoms: _235  and  _238
REMARK  108  A    between atoms: _238  and  _239
REMARK  109  A    between atoms: _242  and  _244
REMARK  110  A    between atoms: _244  and  _245
REMARK  111  A    between atoms: _244  and  _247
REMARK  112  A    between atoms: _247  and  _248
REMARK  113  A    between atoms: _251  and  _253
REMARK  114  A    between atoms: _253  and  _254
REMARK  115  A    between atoms: _253  and  _256
REMARK  116  A    between atoms: _256  and  _257
REMARK  117  A    between atoms: _260  and  _262
REMARK  118  A    between atoms: _262  and  _263
REMARK  119  A    between atoms: _262  and  _265
REMARK  120  A    between atoms: _265  and  _266
REMARK  121  A    between atoms: _269  and  _271
REMARK  122  A    between atoms: _271  and  _272
REMARK  123  A    between atoms: _271  and  _274
REMARK  124  A    between atoms: _274  and  _275
REMARK  125  A    between atoms: _280  and  _282
REMARK  126  A    between atoms: _282  and  _283
REMARK  127  A    between atoms: _282  and  _285
REMARK  128  A    between atoms: _285  and  _286
REMARK  129  A    between atoms: _291  and  _293
REMARK  130  A    between atoms: _293  and  _294
REMARK  131  A    between atoms: _293  and  _296
REMARK  132  A    between atoms: _296  and  _297
REMARK  133  A    between atoms: _300  and  _302
REMARK  134  A    between atoms: _302  and  _303
REMARK  135  A    between atoms: _305  and  _307
REMARK  136  A    between atoms: _307  and  _308
REMARK  137  A    between atoms: _307  and  _310
REMARK  138  A    between atoms: _310  and  _311
REMARK  139  A    between atoms: _314  and  _316
REMARK  140  A    between atoms: _316  and  _317
REMARK  141  A    between atoms: _316  and  _319
REMARK  142  A    between atoms: _319  and  _320
REMARK  143  A    between atoms: _323  and  _325
REMARK  144  A    between atoms: _325  and  _326
REMARK  145  A    between atoms: _329  and  _331
REMARK  146  A    between atoms: _331  and  _332
REMARK  147  A    between atoms: _331  and  _334
REMARK  148  A    between atoms: _334  and  _335
REMARK  149  A    between atoms: _335  and  _336
REMARK  150  A    between atoms: _336  and  _337
REMARK  151  A    between atoms: _337  and  _338
REMARK  152  A    between atoms: _342  and  _344
REMARK  153  A    between atoms: _344  and  _345
REMARK  154  A    between atoms: _344  and  _347
REMARK  155  A    between atoms: _347  and  _348
REMARK  156  A    between atoms: _351  and  _353
REMARK  157  A    between atoms: _353  and  _354
REMARK  158  A    between atoms: _353  and  _356
REMARK  159  A    between atoms: _356  and  _357
REMARK  160  A    between atoms: _363  and  _365
REMARK  161  A    between atoms: _365  and  _366
REMARK  162  A    between atoms: _368  and  _370
REMARK  163  A    between atoms: _370  and  _371
REMARK  164  A    between atoms: _370  and  _373
REMARK  165  A    between atoms: _376  and  _378
REMARK  166  A    between atoms: _378  and  _379
REMARK  167  A    between atoms: _381  and  _383
REMARK  168  A    between atoms: _383  and  _384
REMARK  169  A    between atoms: _383  and  _386
REMARK  170  A    between atoms: _386  and  _387
REMARK  171  A    between atoms: _393  and  _395
REMARK  172  A    between atoms: _395  and  _396
REMARK  173  A    between atoms: _395  and  _398
REMARK  174  A    between atoms: _398  and  _399
REMARK  175  A    between atoms: _404  and  _405
REMARK  176  A    between atoms: _407  and  _409
REMARK  177  A    between atoms: _409  and  _410
REMARK  178  A    between atoms: _409  and  _412
REMARK  179  A    between atoms: _412  and  _413
REMARK  180  A    between atoms: _415  and  _417
REMARK  181  A    between atoms: _417  and  _418
REMARK  182  A    between atoms: _417  and  _420
REMARK  183  A    between atoms: _420  and  _421
REMARK  184  A    between atoms: _426  and  _427
REMARK  185  A    between atoms: _429  and  _431
REMARK  186  A    between atoms: _431  and  _432
REMARK  187  A    between atoms: _431  and  _434
REMARK  188  A    between atoms: _437  and  _439
REMARK  189  A    between atoms: _439  and  _440
REMARK  190  A    between atoms: _439  and  _442
REMARK  191  A    between atoms: _442  and  _443
REMARK  192  A    between atoms: _446  and  _448
REMARK  193  A    between atoms: _448  and  _449
REMARK  194  A    between atoms: _448  and  _451
REMARK  195  A    between atoms: _454  and  _456
REMARK  196  A    between atoms: _456  and  _457
REMARK  197  A    between atoms: _456  and  _459
REMARK  198  A    between atoms: _459  and  _460
REMARK  199  A    between atoms: _463  and  _465
REMARK  200  A    between atoms: _465  and  _466
REMARK  201  A    between atoms: _465  and  _468
REMARK  202  A    between atoms: _468  and  _469
REMARK  203  A    between atoms: _472  and  _474
REMARK  204  A    between atoms: _474  and  _475
REMARK  205  A    between atoms: _474  and  _477
REMARK  206  A    between atoms: _477  and  _478
REMARK  207  A    between atoms: _478  and  _479
REMARK  208  A    between atoms: _479  and  _480
REMARK  209  A    between atoms: _480  and  _481
REMARK  210  A    between atoms: _485  and  _487
REMARK  211  A    between atoms: _487  and  _488
REMARK  212  A    between atoms: _487  and  _490
REMARK  213  A    between atoms: _490  and  _491
REMARK  214  A    between atoms: _496  and  _498
REMARK  215  A    between atoms: _498  and  _499
REMARK  216  A    between atoms: _498  and  _501
REMARK  217  A    between atoms: _501  and  _502
REMARK  218  A    between atoms: _512  and  _514
REMARK  219  A    between atoms: _514  and  _515
REMARK  220  A    between atoms: _514  and  _517
REMARK  221  A    between atoms: _517  and  _518
REMARK  222  A    between atoms: _518  and  _519
REMARK  223  A    between atoms: _522  and  _524
REMARK  224  A    between atoms: _524  and  _525
REMARK  225  A    between atoms: _524  and  _527
REMARK  226  A    between atoms: _527  and  _528
REMARK  227  A    between atoms: _530  and  _532
REMARK  228  A    between atoms: _532  and  _533
REMARK  229  A    between atoms: _532  and  _535
REMARK  230  A    between atoms: _535  and  _536
REMARK  231  A    between atoms: _542  and  _544
REMARK  232  A    between atoms: _544  and  _545
REMARK  233  A    between atoms: _544  and  _547
REMARK  234  A    between atoms: _547  and  _548
REMARK  235  A    between atoms: _551  and  _553
REMARK  236  A    between atoms: _553  and  _554
REMARK  237  A    between atoms: _553  and  _556
REMARK  238  A    between atoms: _559  and  _561
REMARK  239  A    between atoms: _561  and  _562
REMARK  240  A    between atoms: _564  and  _566
REMARK  241  A    between atoms: _566  and  _567
REMARK  242  A    between atoms: _566  and  _569
REMARK  243  A    between atoms: _569  and  _570
REMARK  244  A    between atoms: _573  and  _575
REMARK  245  A    between atoms: _575  and  _576
REMARK  246  A    between atoms: _575  and  _578
REMARK  247  A    between atoms: _578  and  _579
REMARK  248  A    between atoms: _579  and  _580
REMARK  249  A    between atoms: _580  and  _581
REMARK  250  A    between atoms: _581  and  _582
REMARK  251  A    between atoms: _586  and  _588
REMARK  252  A    between atoms: _588  and  _589
REMARK  253  A    between atoms: _588  and  _591
REMARK                            x       y       z     vdW  Elec       q    Type
REMARK                         _______ _______ _______ _____ _____    ______ ____
ROOT
ATOM      1  O   HOH     1      10.349 -12.596 -29.081  0.00  0.00    +0.000 OA
ENDROOT
TORSDOF 0
REMARK  Name = ../refined-set-2016/3d0b/3d0b_pocket.pdb
REMARK  253 active torsions:
REMARK  status: ('A' for Active; 'I' for Inactive)
REMARK    1  A    between atoms: _1  and  _3
REMARK    2  A    between atoms: _3  and  _4
REMARK    3  A    between atoms: _3  and  _6
REMARK    4  A    between atoms: _6  and  _7
REMARK    5  A    between atoms: _13  and  _15
REMARK    6  A    between atoms: _15  and  _16
REMARK    7  A    between atoms: _15  and  _18
REMARK    8  A    between atoms: _18  and  _19
REMARK    9  A    between atoms: _19  and  _20
REMARK   10  A    between atoms: _25  and  _27
REMARK   11  A    between atoms: _27  and  _28
REMARK   12  A    between atoms: _27  and  _30
REMARK   13  A    between atoms: _30  and  _31
REMARK   14  A    between atoms: _34  and  _36
REMARK   15  A    between atoms: _36  and  _37
REMARK   16  A    between atoms: _36  and  _39
REMARK   17  A    between atoms: _39  and  _40
REMARK   18  A    between atoms: _40  and  _41
REMARK   19  A    between atoms: _43  and  _45
REMARK   20  A    between atoms: _45  and  _46
REMARK   21  A    between atoms: _45  and  _48
REMARK   22  A    between atoms: _48  and  _49
REMARK   23  A    between atoms: _49  and  _50
REMARK   24  A    between atoms: _53  and  _55
REMARK   25  A    between atoms: _55  and  _56
REMARK   26  A    between atoms: _55  and  _58
REMARK   27  A    between atoms: _58  and  _59
REMARK   28  A    between atoms: _62  and  _64
REMARK   29  A    between atoms: _64  and  _65
REMARK   30  A    between atoms: _64  and  _67
REMARK   31  A    between atoms: _67  and  _68
REMARK   32  A    between atoms: _71  and  _73
REMARK   33  A    between atoms: _73  and  _74
REMARK   34  A    between atoms: _73  and  _76
REMARK   35  A    between atoms: _76  and  _77
REMARK   36  A    between atoms: _79  and  _81
REMARK   37  A    between atoms: _81  and  _82
REMARK   38  A    between atoms: _81  and  _84
REMARK   39  A    between atoms: _84  and  _85
REMARK   40  A    between atoms: _90  and  _92
REMARK   41  A    between atoms: _92  and  _93
REMARK   42  A    between atoms: _92  and  _95
REMARK   43  A    between atoms: _95  and  _96
REMARK   44  A    between atoms: _98  and  _100
REMARK   45  A    between atoms: _100  and  _101
REMARK   46  A    between atoms: _100  and  _103
REMARK   47  A    between atoms: _103  and  _104
REMARK   48  A    between atoms: _106  and  _108
REMARK   49  A    between atoms: _108  and  _109
REMARK   50  A    between atoms: _108  and  _111
REMARK   51  A    between atoms: _111  and  _112
REMARK   52  A    between atoms: _115  and  _117
REMARK   53  A    between atoms: _117  and  _118
REMARK   54  A    between atoms: _121  and  _123
REMARK   55  A    between atoms: _123  and  _124
REMARK   56  A    between atoms: _123  and  _126
REMARK   57  A    between atoms: _126  and  _127
REMARK   58  A    between atoms: _130  and  _132
REMARK   59  A    between atoms: _132  and  _133
REMARK   60  A    between atoms: _132  and  _135
REMARK   61  A    between atoms: _135  and  _136
REMARK   62  A    between atoms: _139  and  _141
REMARK   63  A    between atoms: _141  and  _142
REMARK   64  A    between atoms: _141  and  _144
REMARK   65  A    between atoms: _144  and  _145
REMARK   66  A    between atoms: _145  and  _146
REMARK   67  A    between atoms: _146  and  _147
REMARK   68  A    between atoms: _147  and  _148
REMARK   69  A    between atoms: _152  and  _154
REMARK   70  A    between atoms: _154  and  _155
REMARK   71  A    between atoms: _154  and  _157
REMARK   72  A    between atoms: _157  and  _158
REMARK   73  A    between atoms: _161  and  _163
REMARK   74  A    between atoms: _163  and  _164
REMARK   75  A    between atoms: _163  and  _166
REMARK   76  A    between atoms: _166  and  _167
REMARK   77  A    between atoms: _170  and  _172
REMARK   78  A    between atoms: _172  and  _173
REMARK   79  A    between atoms: _172  and  _175
REMARK   80  A    between atoms: _175  and  _176
REMARK   81  A    between atoms: _179  and  _181
REMARK   82  A    between atoms: _181  and  _182
REMARK   83  A    between atoms: _181  and  _184
REMARK   84  A    between atoms: _187  and  _189
REMARK   85  A    between atoms: _189  and  _190
REMARK   86  A    between atoms: _189  and  _192
REMARK   87  A    between atoms: _192  and  _193
REMARK   88  A    between atoms: _196  and  _198
REMARK   89  A    between atoms: _198  and  _199
REMARK   90  A    between atoms: _198  and  _201
REMARK   91  A    between atoms: _201  and  _202
REMARK   92  A    between atoms: _205  and  _207
REMARK   93  A    between atoms: _207  and  _208
REMARK   94  A    between atoms: _210  and  _212
REMARK   95  A    between atoms: _212  and  _213
REMARK   96  A    between atoms: _212  and  _215
REMARK   97  A    between atoms: _215  and  _216
REMARK   98  A    between atoms: _219  and  _221
REMARK   99  A    between atoms: _221  and  _222
REMARK  100  A    between atoms: _224  and  _226
REMARK  101  A    between atoms: _226  and  _227
REMARK  102  A    between atoms: _226  and  _229
REMARK  103  A    between atoms: _229  and  _230
REMARK  104  A    between atoms: _230  and  _231
REMARK  105  A    between atoms: _233  and  _235
REMARK  106  A    between atoms: _235  and  _236
REMARK  107  A    between atoms: _235  and  _238
REMARK  108  A    between atoms: _238  and  _239
REMARK  109  A    between atoms: _242  and  _244
REMARK  110  A    between atoms: _244  and  _245
REMARK  111  A    between atoms: _244  and  _247
REMARK  112  A    between atoms: _247  and  _248
REMARK  113  A    between atoms: _251  and  _253
REMARK  114  A    between atoms: _253  and  _254
REMARK  115  A    between atoms: _253  and  _256
REMARK  116  A    between atoms: _256  and  _257
REMARK  117  A    between atoms: _260  and  _262
REMARK  118  A    between atoms: _262  and  _263
REMARK  119  A    between atoms: _262  and  _265
REMARK  120  A    between atoms: _265  and  _266
REMARK  121  A    between atoms: _269  and  _271
REMARK  122  A    between atoms: _271  and  _272
REMARK  123  A    between atoms: _271  and  _274
REMARK  124  A    between atoms: _274  and  _275
REMARK  125  A    between atoms: _280  and  _282
REMARK  126  A    between atoms: _282  and  _283
REMARK  127  A    between atoms: _282  and  _285
REMARK  128  A    between atoms: _285  and  _286
REMARK  129  A    between atoms: _291  and  _293
REMARK  130  A    between atoms: _293  and  _294
REMARK  131  A    between atoms: _293  and  _296
REMARK  132  A    between atoms: _296  and  _297
REMARK  133  A    between atoms: _300  and  _302
REMARK  134  A    between atoms: _302  and  _303
REMARK  135  A    between atoms: _305  and  _307
REMARK  136  A    between atoms: _307  and  _308
REMARK  137  A    between atoms: _307  and  _310
REMARK  138  A    between atoms: _310  and  _311
REMARK  139  A    between atoms: _314  and  _316
REMARK  140  A    between atoms: _316  and  _317
REMARK  141  A    between atoms: _316  and  _319
REMARK  142  A    between atoms: _319  and  _320
REMARK  143  A    between atoms: _323  and  _325
REMARK  144  A    between atoms: _325  and  _326
REMARK  145  A    between atoms: _329  and  _331
REMARK  146  A    between atoms: _331  and  _332
REMARK  147  A    between atoms: _331  and  _334
REMARK  148  A    between atoms: _334  and  _335
REMARK  149  A    between atoms: _335  and  _336
REMARK  150  A    between atoms: _336  and  _337
REMARK  151  A    between atoms: _337  and  _338
REMARK  152  A    between atoms: _342  and  _344
REMARK  153  A    between atoms: _344  and  _345
REMARK  154  A    between atoms: _344  and  _347
REMARK  155  A    between atoms: _347  and  _348
REMARK  156  A    between atoms: _351  and  _353
REMARK  157  A    between atoms: _353  and  _354
REMARK  158  A    between atoms: _353  and  _356
REMARK  159  A    between atoms: _356  and  _357
REMARK  160  A    between atoms: _363  and  _365
REMARK  161  A    between atoms: _365  and  _366
REMARK  162  A    between atoms: _368  and  _370
REMARK  163  A    between atoms: _370  and  _371
REMARK  164  A    between atoms: _370  and  _373
REMARK  165  A    between atoms: _376  and  _378
REMARK  166  A    between atoms: _378  and  _379
REMARK  167  A    between atoms: _381  and  _383
REMARK  168  A    between atoms: _383  and  _384
REMARK  169  A    between atoms: _383  and  _386
REMARK  170  A    between atoms: _386  and  _387
REMARK  171  A    between atoms: _393  and  _395
REMARK  172  A    between atoms: _395  and  _396
REMARK  173  A    between atoms: _395  and  _398
REMARK  174  A    between atoms: _398  and  _399
REMARK  175  A    between atoms: _404  and  _405
REMARK  176  A    between atoms: _407  and  _409
REMARK  177  A    between atoms: _409  and  _410
REMARK  178  A    between atoms: _409  and  _412
REMARK  179  A    between atoms: _412  and  _413
REMARK  180  A    between atoms: _415  and  _417
REMARK  181  A    between atoms: _417  and  _418
REMARK  182  A    between atoms: _417  and  _420
REMARK  183  A    between atoms: _420  and  _421
REMARK  184  A    between atoms: _426  and  _427
REMARK  185  A    between atoms: _429  and  _431
REMARK  186  A    between atoms: _431  and  _432
REMARK  187  A    between atoms: _431  and  _434
REMARK  188  A    between atoms: _437  and  _439
REMARK  189  A    between atoms: _439  and  _440
REMARK  190  A    between atoms: _439  and  _442
REMARK  191  A    between atoms: _442  and  _443
REMARK  192  A    between atoms: _446  and  _448
REMARK  193  A    between atoms: _448  and  _449
REMARK  194  A    between atoms: _448  and  _451
REMARK  195  A    between atoms: _454  and  _456
REMARK  196  A    between atoms: _456  and  _457
REMARK  197  A    between atoms: _456  and  _459
REMARK  198  A    between atoms: _459  and  _460
REMARK  199  A    between atoms: _463  and  _465
REMARK  200  A    between atoms: _465  and  _466
REMARK  201  A    between atoms: _465  and  _468
REMARK  202  A    between atoms: _468  and  _469
REMARK  203  A    between atoms: _472  and  _474
REMARK  204  A    between atoms: _474  and  _475
REMARK  205  A    between atoms: _474  and  _477
REMARK  206  A    between atoms: _477  and  _478
REMARK  207  A    between atoms: _478  and  _479
REMARK  208  A    between atoms: _479  and  _480
REMARK  209  A    between atoms: _480  and  _481
REMARK  210  A    between atoms: _485  and  _487
REMARK  211  A    between atoms: _487  and  _488
REMARK  212  A    between atoms: _487  and  _490
REMARK  213  A    between atoms: _490  and  _491
REMARK  214  A    between atoms: _496  and  _498
REMARK  215  A    between atoms: _498  and  _499
REMARK  216  A    between atoms: _498  and  _501
REMARK  217  A    between atoms: _501  and  _502
REMARK  218  A    between atoms: _512  and  _514
REMARK  219  A    between atoms: _514  and  _515
REMARK  220  A    between atoms: _514  and  _517
REMARK  221  A    between atoms: _517  and  _518
REMARK  222  A    between atoms: _518  and  _519
REMARK  223  A    between atoms: _522  and  _524
REMARK  224  A    between atoms: _524  and  _525
REMARK  225  A    between atoms: _524  and  _527
REMARK  226  A    between atoms: _527  and  _528
REMARK  227  A    between atoms: _530  and  _532
REMARK  228  A    between atoms: _532  and  _533
REMARK  229  A    between atoms: _532  and  _535
REMARK  230  A    between atoms: _535  and  _536
REMARK  231  A    between atoms: _542  and  _544
REMARK  232  A    between atoms: _544  and  _545
REMARK  233  A    between atoms: _544  and  _547
REMARK  234  A    between atoms: _547  and  _548
REMARK  235  A    between atoms: _551  and  _553
REMARK  236  A    between atoms: _553  and  _554
REMARK  237  A    between atoms: _553  and  _556
REMARK  238  A    between atoms: _559  and  _561
REMARK  239  A    between atoms: _561  and  _562
REMARK  240  A    between atoms: _564  and  _566
REMARK  241  A    between atoms: _566  and  _567
REMARK  242  A    between atoms: _566  and  _569
REMARK  243  A    between atoms: _569  and  _570
REMARK  244  A    between atoms: _573  and  _575
REMARK  245  A    between atoms: _575  and  _576
REMARK  246  A    between atoms: _575  and  _578
REMARK  247  A    between atoms: _578  and  _579
REMARK  248  A    between atoms: _579  and  _580
REMARK  249  A    between atoms: _580  and  _581
REMARK  250  A    between atoms: _581  and  _582
REMARK  251  A    between atoms: _586  and  _588
REMARK  252  A    between atoms: _588  and  _589
REMARK  253  A    between atoms: _588  and  _591
REMARK                            x       y       z     vdW  Elec       q    Type
REMARK                         _______ _______ _______ _____ _____    ______ ____
ROOT
ATOM      1  O   HOH     1      -3.017   0.164 -23.178  0.00  0.00    +0.000 OA
ENDROOT
TORSDOF 0
REMARK  Name = ../refined-set-2016/3d0b/3d0b_pocket.pdb
REMARK  253 active torsions:
REMARK  status: ('A' for Active; 'I' for Inactive)
REMARK    1  A    between atoms: _1  and  _3
REMARK    2  A    between atoms: _3  and  _4
REMARK    3  A    between atoms: _3  and  _6
REMARK    4  A    between atoms: _6  and  _7
REMARK    5  A    between atoms: _13  and  _15
REMARK    6  A    between atoms: _15  and  _16
REMARK    7  A    between atoms: _15  and  _18
REMARK    8  A    between atoms: _18  and  _19
REMARK    9  A    between atoms: _19  and  _20
REMARK   10  A    between atoms: _25  and  _27
REMARK   11  A    between atoms: _27  and  _28
REMARK   12  A    between atoms: _27  and  _30
REMARK   13  A    between atoms: _30  and  _31
REMARK   14  A    between atoms: _34  and  _36
REMARK   15  A    between atoms: _36  and  _37
REMARK   16  A    between atoms: _36  and  _39
REMARK   17  A    between atoms: _39  and  _40
REMARK   18  A    between atoms: _40  and  _41
REMARK   19  A    between atoms: _43  and  _45
REMARK   20  A    between atoms: _45  and  _46
REMARK   21  A    between atoms: _45  and  _48
REMARK   22  A    between atoms: _48  and  _49
REMARK   23  A    between atoms: _49  and  _50
REMARK   24  A    between atoms: _53  and  _55
REMARK   25  A    between atoms: _55  and  _56
REMARK   26  A    between atoms: _55  and  _58
REMARK   27  A    between atoms: _58  and  _59
REMARK   28  A    between atoms: _62  and  _64
REMARK   29  A    between atoms: _64  and  _65
REMARK   30  A    between atoms: _64  and  _67
REMARK   31  A    between atoms: _67  and  _68
REMARK   32  A    between atoms: _71  and  _73
REMARK   33  A    between atoms: _73  and  _74
REMARK   34  A    between atoms: _73  and  _76
REMARK   35  A    between atoms: _76  and  _77
REMARK   36  A    between atoms: _79  and  _81
REMARK   37  A    between atoms: _81  and  _82
REMARK   38  A    between atoms: _81  and  _84
REMARK   39  A    between atoms: _84  and  _85
REMARK   40  A    between atoms: _90  and  _92
REMARK   41  A    between atoms: _92  and  _93
REMARK   42  A    between atoms: _92  and  _95
REMARK   43  A    between atoms: _95  and  _96
REMARK   44  A    between atoms: _98  and  _100
REMARK   45  A    between atoms: _100  and  _101
REMARK   46  A    between atoms: _100  and  _103
REMARK   47  A    between atoms: _103  and  _104
REMARK   48  A    between atoms: _106  and  _108
REMARK   49  A    between atoms: _108  and  _109
REMARK   50  A    between atoms: _108  and  _111
REMARK   51  A    between atoms: _111  and  _112
REMARK   52  A    between atoms: _115  and  _117
REMARK   53  A    between atoms: _117  and  _118
REMARK   54  A    between atoms: _121  and  _123
REMARK   55  A    between atoms: _123  and  _124
REMARK   56  A    between atoms: _123  and  _126
REMARK   57  A    between atoms: _126  and  _127
REMARK   58  A    between atoms: _130  and  _132
REMARK   59  A    between atoms: _132  and  _133
REMARK   60  A    between atoms: _132  and  _135
REMARK   61  A    between atoms: _135  and  _136
REMARK   62  A    between atoms: _139  and  _141
REMARK   63  A    between atoms: _141  and  _142
REMARK   64  A    between atoms: _141  and  _144
REMARK   65  A    between atoms: _144  and  _145
REMARK   66  A    between atoms: _145  and  _146
REMARK   67  A    between atoms: _146  and  _147
REMARK   68  A    between atoms: _147  and  _148
REMARK   69  A    between atoms: _152  and  _154
REMARK   70  A    between atoms: _154  and  _155
REMARK   71  A    between atoms: _154  and  _157
REMARK   72  A    between atoms: _157  and  _158
REMARK   73  A    between atoms: _161  and  _163
REMARK   74  A    between atoms: _163  and  _164
REMARK   75  A    between atoms: _163  and  _166
REMARK   76  A    between atoms: _166  and  _167
REMARK   77  A    between atoms: _170  and  _172
REMARK   78  A    between atoms: _172  and  _173
REMARK   79  A    between atoms: _172  and  _175
REMARK   80  A    between atoms: _175  and  _176
REMARK   81  A    between atoms: _179  and  _181
REMARK   82  A    between atoms: _181  and  _182
REMARK   83  A    between atoms: _181  and  _184
REMARK   84  A    between atoms: _187  and  _189
REMARK   85  A    between atoms: _189  and  _190
REMARK   86  A    between atoms: _189  and  _192
REMARK   87  A    between atoms: _192  and  _193
REMARK   88  A    between atoms: _196  and  _198
REMARK   89  A    between atoms: _198  and  _199
REMARK   90  A    between atoms: _198  and  _201
REMARK   91  A    between atoms: _201  and  _202
REMARK   92  A    between atoms: _205  and  _207
REMARK   93  A    between atoms: _207  and  _208
REMARK   94  A    between atoms: _210  and  _212
REMARK   95  A    between atoms: _212  and  _213
REMARK   96  A    between atoms: _212  and  _215
REMARK   97  A    between atoms: _215  and  _216
REMARK   98  A    between atoms: _219  and  _221
REMARK   99  A    between atoms: _221  and  _222
REMARK  100  A    between atoms: _224  and  _226
REMARK  101  A    between atoms: _226  and  _227
REMARK  102  A    between atoms: _226  and  _229
REMARK  103  A    between atoms: _229  and  _230
REMARK  104  A    between atoms: _230  and  _231
REMARK  105  A    between atoms: _233  and  _235
REMARK  106  A    between atoms: _235  and  _236
REMARK  107  A    between atoms: _235  and  _238
REMARK  108  A    between atoms: _238  and  _239
REMARK  109  A    between atoms: _242  and  _244
REMARK  110  A    between atoms: _244  and  _245
REMARK  111  A    between atoms: _244  and  _247
REMARK  112  A    between atoms: _247  and  _248
REMARK  113  A    between atoms: _251  and  _253
REMARK  114  A    between atoms: _253  and  _254
REMARK  115  A    between atoms: _253  and  _256
REMARK  116  A    between atoms: _256  and  _257
REMARK  117  A    between atoms: _260  and  _262
REMARK  118  A    between atoms: _262  and  _263
REMARK  119  A    between atoms: _262  and  _265
REMARK  120  A    between atoms: _265  and  _266
REMARK  121  A    between atoms: _269  and  _271
REMARK  122  A    between atoms: _271  and  _272
REMARK  123  A    between atoms: _271  and  _274
REMARK  124  A    between atoms: _274  and  _275
REMARK  125  A    between atoms: _280  and  _282
REMARK  126  A    between atoms: _282  and  _283
REMARK  127  A    between atoms: _282  and  _285
REMARK  128  A    between atoms: _285  and  _286
REMARK  129  A    between atoms: _291  and  _293
REMARK  130  A    between atoms: _293  and  _294
REMARK  131  A    between atoms: _293  and  _296
REMARK  132  A    between atoms: _296  and  _297
REMARK  133  A    between atoms: _300  and  _302
REMARK  134  A    between atoms: _302  and  _303
REMARK  135  A    between atoms: _305  and  _307
REMARK  136  A    between atoms: _307  and  _308
REMARK  137  A    between atoms: _307  and  _310
REMARK  138  A    between atoms: _310  and  _311
REMARK  139  A    between atoms: _314  and  _316
REMARK  140  A    between atoms: _316  and  _317
REMARK  141  A    between atoms: _316  and  _319
REMARK  142  A    between atoms: _319  and  _320
REMARK  143  A    between atoms: _323  and  _325
REMARK  144  A    between atoms: _325  and  _326
REMARK  145  A    between atoms: _329  and  _331
REMARK  146  A    between atoms: _331  and  _332
REMARK  147  A    between atoms: _331  and  _334
REMARK  148  A    between atoms: _334  and  _335
REMARK  149  A    between atoms: _335  and  _336
REMARK  150  A    between atoms: _336  and  _337
REMARK  151  A    between atoms: _337  and  _338
REMARK  152  A    between atoms: _342  and  _344
REMARK  153  A    between atoms: _344  and  _345
REMARK  154  A    between atoms: _344  and  _347
REMARK  155  A    between atoms: _347  and  _348
REMARK  156  A    between atoms: _351  and  _353
REMARK  157  A    between atoms: _353  and  _354
REMARK  158  A    between atoms: _353  and  _356
REMARK  159  A    between atoms: _356  and  _357
REMARK  160  A    between atoms: _363  and  _365
REMARK  161  A    between atoms: _365  and  _366
REMARK  162  A    between atoms: _368  and  _370
REMARK  163  A    between atoms: _370  and  _371
REMARK  164  A    between atoms: _370  and  _373
REMARK  165  A    between atoms: _376  and  _378
REMARK  166  A    between atoms: _378  and  _379
REMARK  167  A    between atoms: _381  and  _383
REMARK  168  A    between atoms: _383  and  _384
REMARK  169  A    between atoms: _383  and  _386
REMARK  170  A    between atoms: _386  and  _387
REMARK  171  A    between atoms: _393  and  _395
REMARK  172  A    between atoms: _395  and  _396
REMARK  173  A    between atoms: _395  and  _398
REMARK  174  A    between atoms: _398  and  _399
REMARK  175  A    between atoms: _404  and  _405
REMARK  176  A    between atoms: _407  and  _409
REMARK  177  A    between atoms: _409  and  _410
REMARK  178  A    between atoms: _409  and  _412
REMARK  179  A    between atoms: _412  and  _413
REMARK  180  A    between atoms: _415  and  _417
REMARK  181  A    between atoms: _417  and  _418
REMARK  182  A    between atoms: _417  and  _420
REMARK  183  A    between atoms: _420  and  _421
REMARK  184  A    between atoms: _426  and  _427
REMARK  185  A    between atoms: _429  and  _431
REMARK  186  A    between atoms: _431  and  _432
REMARK  187  A    between atoms: _431  and  _434
REMARK  188  A    between atoms: _437  and  _439
REMARK  189  A    between atoms: _439  and  _440
REMARK  190  A    between atoms: _439  and  _442
REMARK  191  A    between atoms: _442  and  _443
REMARK  192  A    between atoms: _446  and  _448
REMARK  193  A    between atoms: _448  and  _449
REMARK  194  A    between atoms: _448  and  _451
REMARK  195  A    between atoms: _454  and  _456
REMARK  196  A    between atoms: _456  and  _457
REMARK  197  A    between atoms: _456  and  _459
REMARK  198  A    between atoms: _459  and  _460
REMARK  199  A    between atoms: _463  and  _465
REMARK  200  A    between atoms: _465  and  _466
REMARK  201  A    between atoms: _465  and  _468
REMARK  202  A    between atoms: _468  and  _469
REMARK  203  A    between atoms: _472  and  _474
REMARK  204  A    between atoms: _474  and  _475
REMARK  205  A    between atoms: _474  and  _477
REMARK  206  A    between atoms: _477  and  _478
REMARK  207  A    between atoms: _478  and  _479
REMARK  208  A    between atoms: _479  and  _480
REMARK  209  A    between atoms: _480  and  _481
REMARK  210  A    between atoms: _485  and  _487
REMARK  211  A    between atoms: _487  and  _488
REMARK  212  A    between atoms: _487  and  _490
REMARK  213  A    between atoms: _490  and  _491
REMARK  214  A    between atoms: _496  and  _498
REMARK  215  A    between atoms: _498  and  _499
REMARK  216  A    between atoms: _498  and  _501
REMARK  217  A    between atoms: _501  and  _502
REMARK  218  A    between atoms: _512  and  _514
REMARK  219  A    between atoms: _514  and  _515
REMARK  220  A    between atoms: _514  and  _517
REMARK  221  A    between atoms: _517  and  _518
REMARK  222  A    between atoms: _518  and  _519
REMARK  223  A    between atoms: _522  and  _524
REMARK  224  A    between atoms: _524  and  _525
REMARK  225  A    between atoms: _524  and  _527
REMARK  226  A    between atoms: _527  and  _528
REMARK  227  A    between atoms: _530  and  _532
REMARK  228  A    between atoms: _532  and  _533
REMARK  229  A    between atoms: _532  and  _535
REMARK  230  A    between atoms: _535  and  _536
REMARK  231  A    between atoms: _542  and  _544
REMARK  232  A    between atoms: _544  and  _545
REMARK  233  A    between atoms: _544  and  _547
REMARK  234  A    between atoms: _547  and  _548
REMARK  235  A    between atoms: _551  and  _553
REMARK  236  A    between atoms: _553  and  _554
REMARK  237  A    between atoms: _553  and  _556
REMARK  238  A    between atoms: _559  and  _561
REMARK  239  A    between atoms: _561  and  _562
REMARK  240  A    between atoms: _564  and  _566
REMARK  241  A    between atoms: _566  and  _567
REMARK  242  A    between atoms: _566  and  _569
REMARK  243  A    between atoms: _569  and  _570
REMARK  244  A    between atoms: _573  and  _575
REMARK  245  A    between atoms: _575  and  _576
REMARK  246  A    between atoms: _575  and  _578
REMARK  247  A    between atoms: _578  and  _579
REMARK  248  A    between atoms: _579  and  _580
REMARK  249  A    between atoms: _580  and  _581
REMARK  250  A    between atoms: _581  and  _582
REMARK  251  A    between atoms: _586  and  _588
REMARK  252  A    between atoms: _588  and  _589
REMARK  253  A    between atoms: _588  and  _591
REMARK                            x       y       z     vdW  Elec       q    Type
REMARK                         _______ _______ _______ _____ _____    ______ ____
ROOT
ATOM      1  O   HOH     1       8.763  -5.947 -22.470  0.00  0.00    +0.000 OA
ENDROOT
TORSDOF 0
REMARK  Name = ../refined-set-2016/3d0b/3d0b_pocket.pdb
REMARK  253 active torsions:
REMARK  status: ('A' for Active; 'I' for Inactive)
REMARK    1  A    between atoms: _1  and  _3
REMARK    2  A    between atoms: _3  and  _4
REMARK    3  A    between atoms: _3  and  _6
REMARK    4  A    between atoms: _6  and  _7
REMARK    5  A    between atoms: _13  and  _15
REMARK    6  A    between atoms: _15  and  _16
REMARK    7  A    between atoms: _15  and  _18
REMARK    8  A    between atoms: _18  and  _19
REMARK    9  A    between atoms: _19  and  _20
REMARK   10  A    between atoms: _25  and  _27
REMARK   11  A    between atoms: _27  and  _28
REMARK   12  A    between atoms: _27  and  _30
REMARK   13  A    between atoms: _30  and  _31
REMARK   14  A    between atoms: _34  and  _36
REMARK   15  A    between atoms: _36  and  _37
REMARK   16  A    between atoms: _36  and  _39
REMARK   17  A    between atoms: _39  and  _40
REMARK   18  A    between atoms: _40  and  _41
REMARK   19  A    between atoms: _43  and  _45
REMARK   20  A    between atoms: _45  and  _46
REMARK   21  A    between atoms: _45  and  _48
REMARK   22  A    between atoms: _48  and  _49
REMARK   23  A    between atoms: _49  and  _50
REMARK   24  A    between atoms: _53  and  _55
REMARK   25  A    between atoms: _55  and  _56
REMARK   26  A    between atoms: _55  and  _58
REMARK   27  A    between atoms: _58  and  _59
REMARK   28  A    between atoms: _62  and  _64
REMARK   29  A    between atoms: _64  and  _65
REMARK   30  A    between atoms: _64  and  _67
REMARK   31  A    between atoms: _67  and  _68
REMARK   32  A    between atoms: _71  and  _73
REMARK   33  A    between atoms: _73  and  _74
REMARK   34  A    between atoms: _73  and  _76
REMARK   35  A    between atoms: _76  and  _77
REMARK   36  A    between atoms: _79  and  _81
REMARK   37  A    between atoms: _81  and  _82
REMARK   38  A    between atoms: _81  and  _84
REMARK   39  A    between atoms: _84  and  _85
REMARK   40  A    between atoms: _90  and  _92
REMARK   41  A    between atoms: _92  and  _93
REMARK   42  A    between atoms: _92  and  _95
REMARK   43  A    between atoms: _95  and  _96
REMARK   44  A    between atoms: _98  and  _100
REMARK   45  A    between atoms: _100  and  _101
REMARK   46  A    between atoms: _100  and  _103
REMARK   47  A    between atoms: _103  and  _104
REMARK   48  A    between atoms: _106  and  _108
REMARK   49  A    between atoms: _108  and  _109
REMARK   50  A    between atoms: _108  and  _111
REMARK   51  A    between atoms: _111  and  _112
REMARK   52  A    between atoms: _115  and  _117
REMARK   53  A    between atoms: _117  and  _118
REMARK   54  A    between atoms: _121  and  _123
REMARK   55  A    between atoms: _123  and  _124
REMARK   56  A    between atoms: _123  and  _126
REMARK   57  A    between atoms: _126  and  _127
REMARK   58  A    between atoms: _130  and  _132
REMARK   59  A    between atoms: _132  and  _133
REMARK   60  A    between atoms: _132  and  _135
REMARK   61  A    between atoms: _135  and  _136
REMARK   62  A    between atoms: _139  and  _141
REMARK   63  A    between atoms: _141  and  _142
REMARK   64  A    between atoms: _141  and  _144
REMARK   65  A    between atoms: _144  and  _145
REMARK   66  A    between atoms: _145  and  _146
REMARK   67  A    between atoms: _146  and  _147
REMARK   68  A    between atoms: _147  and  _148
REMARK   69  A    between atoms: _152  and  _154
REMARK   70  A    between atoms: _154  and  _155
REMARK   71  A    between atoms: _154  and  _157
REMARK   72  A    between atoms: _157  and  _158
REMARK   73  A    between atoms: _161  and  _163
REMARK   74  A    between atoms: _163  and  _164
REMARK   75  A    between atoms: _163  and  _166
REMARK   76  A    between atoms: _166  and  _167
REMARK   77  A    between atoms: _170  and  _172
REMARK   78  A    between atoms: _172  and  _173
REMARK   79  A    between atoms: _172  and  _175
REMARK   80  A    between atoms: _175  and  _176
REMARK   81  A    between atoms: _179  and  _181
REMARK   82  A    between atoms: _181  and  _182
REMARK   83  A    between atoms: _181  and  _184
REMARK   84  A    between atoms: _187  and  _189
REMARK   85  A    between atoms: _189  and  _190
REMARK   86  A    between atoms: _189  and  _192
REMARK   87  A    between atoms: _192  and  _193
REMARK   88  A    between atoms: _196  and  _198
REMARK   89  A    between atoms: _198  and  _199
REMARK   90  A    between atoms: _198  and  _201
REMARK   91  A    between atoms: _201  and  _202
REMARK   92  A    between atoms: _205  and  _207
REMARK   93  A    between atoms: _207  and  _208
REMARK   94  A    between atoms: _210  and  _212
REMARK   95  A    between atoms: _212  and  _213
REMARK   96  A    between atoms: _212  and  _215
REMARK   97  A    between atoms: _215  and  _216
REMARK   98  A    between atoms: _219  and  _221
REMARK   99  A    between atoms: _221  and  _222
REMARK  100  A    between atoms: _224  and  _226
REMARK  101  A    between atoms: _226  and  _227
REMARK  102  A    between atoms: _226  and  _229
REMARK  103  A    between atoms: _229  and  _230
REMARK  104  A    between atoms: _230  and  _231
REMARK  105  A    between atoms: _233  and  _235
REMARK  106  A    between atoms: _235  and  _236
REMARK  107  A    between atoms: _235  and  _238
REMARK  108  A    between atoms: _238  and  _239
REMARK  109  A    between atoms: _242  and  _244
REMARK  110  A    between atoms: _244  and  _245
REMARK  111  A    between atoms: _244  and  _247
REMARK  112  A    between atoms: _247  and  _248
REMARK  113  A    between atoms: _251  and  _253
REMARK  114  A    between atoms: _253  and  _254
REMARK  115  A    between atoms: _253  and  _256
REMARK  116  A    between atoms: _256  and  _257
REMARK  117  A    between atoms: _260  and  _262
REMARK  118  A    between atoms: _262  and  _263
REMARK  119  A    between atoms: _262  and  _265
REMARK  120  A    between atoms: _265  and  _266
REMARK  121  A    between atoms: _269  and  _271
REMARK  122  A    between atoms: _271  and  _272
REMARK  123  A    between atoms: _271  and  _274
REMARK  124  A    between atoms: _274  and  _275
REMARK  125  A    between atoms: _280  and  _282
REMARK  126  A    between atoms: _282  and  _283
REMARK  127  A    between atoms: _282  and  _285
REMARK  128  A    between atoms: _285  and  _286
REMARK  129  A    between atoms: _291  and  _293
REMARK  130  A    between atoms: _293  and  _294
REMARK  131  A    between atoms: _293  and  _296
REMARK  132  A    between atoms: _296  and  _297
REMARK  133  A    between atoms: _300  and  _302
REMARK  134  A    between atoms: _302  and  _303
REMARK  135  A    between atoms: _305  and  _307
REMARK  136  A    between atoms: _307  and  _308
REMARK  137  A    between atoms: _307  and  _310
REMARK  138  A    between atoms: _310  and  _311
REMARK  139  A    between atoms: _314  and  _316
REMARK  140  A    between atoms: _316  and  _317
REMARK  141  A    between atoms: _316  and  _319
REMARK  142  A    between atoms: _319  and  _320
REMARK  143  A    between atoms: _323  and  _325
REMARK  144  A    between atoms: _325  and  _326
REMARK  145  A    between atoms: _329  and  _331
REMARK  146  A    between atoms: _331  and  _332
REMARK  147  A    between atoms: _331  and  _334
REMARK  148  A    between atoms: _334  and  _335
REMARK  149  A    between atoms: _335  and  _336
REMARK  150  A    between atoms: _336  and  _337
REMARK  151  A    between atoms: _337  and  _338
REMARK  152  A    between atoms: _342  and  _344
REMARK  153  A    between atoms: _344  and  _345
REMARK  154  A    between atoms: _344  and  _347
REMARK  155  A    between atoms: _347  and  _348
REMARK  156  A    between atoms: _351  and  _353
REMARK  157  A    between atoms: _353  and  _354
REMARK  158  A    between atoms: _353  and  _356
REMARK  159  A    between atoms: _356  and  _357
REMARK  160  A    between atoms: _363  and  _365
REMARK  161  A    between atoms: _365  and  _366
REMARK  162  A    between atoms: _368  and  _370
REMARK  163  A    between atoms: _370  and  _371
REMARK  164  A    between atoms: _370  and  _373
REMARK  165  A    between atoms: _376  and  _378
REMARK  166  A    between atoms: _378  and  _379
REMARK  167  A    between atoms: _381  and  _383
REMARK  168  A    between atoms: _383  and  _384
REMARK  169  A    between atoms: _383  and  _386
REMARK  170  A    between atoms: _386  and  _387
REMARK  171  A    between atoms: _393  and  _395
REMARK  172  A    between atoms: _395  and  _396
REMARK  173  A    between atoms: _395  and  _398
REMARK  174  A    between atoms: _398  and  _399
REMARK  175  A    between atoms: _404  and  _405
REMARK  176  A    between atoms: _407  and  _409
REMARK  177  A    between atoms: _409  and  _410
REMARK  178  A    between atoms: _409  and  _412
REMARK  179  A    between atoms: _412  and  _413
REMARK  180  A    between atoms: _415  and  _417
REMARK  181  A    between atoms: _417  and  _418
REMARK  182  A    between atoms: _417  and  _420
REMARK  183  A    between atoms: _420  and  _421
REMARK  184  A    between atoms: _426  and  _427
REMARK  185  A    between atoms: _429  and  _431
REMARK  186  A    between atoms: _431  and  _432
REMARK  187  A    between atoms: _431  and  _434
REMARK  188  A    between atoms: _437  and  _439
REMARK  189  A    between atoms: _439  and  _440
REMARK  190  A    between atoms: _439  and  _442
REMARK  191  A    between atoms: _442  and  _443
REMARK  192  A    between atoms: _446  and  _448
REMARK  193  A    between atoms: _448  and  _449
REMARK  194  A    between atoms: _448  and  _451
REMARK  195  A    between atoms: _454  and  _456
REMARK  196  A    between atoms: _456  and  _457
REMARK  197  A    between atoms: _456  and  _459
REMARK  198  A    between atoms: _459  and  _460
REMARK  199  A    between atoms: _463  and  _465
REMARK  200  A    between atoms: _465  and  _466
REMARK  201  A    between atoms: _465  and  _468
REMARK  202  A    between atoms: _468  and  _469
REMARK  203  A    between atoms: _472  and  _474
REMARK  204  A    between atoms: _474  and  _475
REMARK  205  A    between atoms: _474  and  _477
REMARK  206  A    between atoms: _477  and  _478
REMARK  207  A    between atoms: _478  and  _479
REMARK  208  A    between atoms: _479  and  _480
REMARK  209  A    between atoms: _480  and  _481
REMARK  210  A    between atoms: _485  and  _487
REMARK  211  A    between atoms: _487  and  _488
REMARK  212  A    between atoms: _487  and  _490
REMARK  213  A    between atoms: _490  and  _491
REMARK  214  A    between atoms: _496  and  _498
REMARK  215  A    between atoms: _498  and  _499
REMARK  216  A    between atoms: _498  and  _501
REMARK  217  A    between atoms: _501  and  _502
REMARK  218  A    between atoms: _512  and  _514
REMARK  219  A    between atoms: _514  and  _515
REMARK  220  A    between atoms: _514  and  _517
REMARK  221  A    between atoms: _517  and  _518
REMARK  222  A    between atoms: _518  and  _519
REMARK  223  A    between atoms: _522  and  _524
REMARK  224  A    between atoms: _524  and  _525
REMARK  225  A    between atoms: _524  and  _527
REMARK  226  A    between atoms: _527  and  _528
REMARK  227  A    between atoms: _530  and  _532
REMARK  228  A    between atoms: _532  and  _533
REMARK  229  A    between atoms: _532  and  _535
REMARK  230  A    between atoms: _535  and  _536
REMARK  231  A    between atoms: _542  and  _544
REMARK  232  A    between atoms: _544  and  _545
REMARK  233  A    between atoms: _544  and  _547
REMARK  234  A    between atoms: _547  and  _548
REMARK  235  A    between atoms: _551  and  _553
REMARK  236  A    between atoms: _553  and  _554
REMARK  237  A    between atoms: _553  and  _556
REMARK  238  A    between atoms: _559  and  _561
REMARK  239  A    between atoms: _561  and  _562
REMARK  240  A    between atoms: _564  and  _566
REMARK  241  A    between atoms: _566  and  _567
REMARK  242  A    between atoms: _566  and  _569
REMARK  243  A    between atoms: _569  and  _570
REMARK  244  A    between atoms: _573  and  _575
REMARK  245  A    between atoms: _575  and  _576
REMARK  246  A    between atoms: _575  and  _578
REMARK  247  A    between atoms: _578  and  _579
REMARK  248  A    between atoms: _579  and  _580
REMARK  249  A    between atoms: _580  and  _581
REMARK  250  A    between atoms: _581  and  _582
REMARK  251  A    between atoms: _586  and  _588
REMARK  252  A    between atoms: _588  and  _589
REMARK  253  A    between atoms: _588  and  _591
REMARK                            x       y       z     vdW  Elec       q    Type
REMARK                         _______ _______ _______ _____ _____    ______ ____
ROOT
ATOM      1  O   HOH     1       0.894  -5.847 -19.477  0.00  0.00    +0.000 OA
ENDROOT
TORSDOF 0
REMARK  Name = ../refined-set-2016/3d0b/3d0b_pocket.pdb
REMARK  253 active torsions:
REMARK  status: ('A' for Active; 'I' for Inactive)
REMARK    1  A    between atoms: _1  and  _3
REMARK    2  A    between atoms: _3  and  _4
REMARK    3  A    between atoms: _3  and  _6
REMARK    4  A    between atoms: _6  and  _7
REMARK    5  A    between atoms: _13  and  _15
REMARK    6  A    between atoms: _15  and  _16
REMARK    7  A    between atoms: _15  and  _18
REMARK    8  A    between atoms: _18  and  _19
REMARK    9  A    between atoms: _19  and  _20
REMARK   10  A    between atoms: _25  and  _27
REMARK   11  A    between atoms: _27  and  _28
REMARK   12  A    between atoms: _27  and  _30
REMARK   13  A    between atoms: _30  and  _31
REMARK   14  A    between atoms: _34  and  _36
REMARK   15  A    between atoms: _36  and  _37
REMARK   16  A    between atoms: _36  and  _39
REMARK   17  A    between atoms: _39  and  _40
REMARK   18  A    between atoms: _40  and  _41
REMARK   19  A    between atoms: _43  and  _45
REMARK   20  A    between atoms: _45  and  _46
REMARK   21  A    between atoms: _45  and  _48
REMARK   22  A    between atoms: _48  and  _49
REMARK   23  A    between atoms: _49  and  _50
REMARK   24  A    between atoms: _53  and  _55
REMARK   25  A    between atoms: _55  and  _56
REMARK   26  A    between atoms: _55  and  _58
REMARK   27  A    between atoms: _58  and  _59
REMARK   28  A    between atoms: _62  and  _64
REMARK   29  A    between atoms: _64  and  _65
REMARK   30  A    between atoms: _64  and  _67
REMARK   31  A    between atoms: _67  and  _68
REMARK   32  A    between atoms: _71  and  _73
REMARK   33  A    between atoms: _73  and  _74
REMARK   34  A    between atoms: _73  and  _76
REMARK   35  A    between atoms: _76  and  _77
REMARK   36  A    between atoms: _79  and  _81
REMARK   37  A    between atoms: _81  and  _82
REMARK   38  A    between atoms: _81  and  _84
REMARK   39  A    between atoms: _84  and  _85
REMARK   40  A    between atoms: _90  and  _92
REMARK   41  A    between atoms: _92  and  _93
REMARK   42  A    between atoms: _92  and  _95
REMARK   43  A    between atoms: _95  and  _96
REMARK   44  A    between atoms: _98  and  _100
REMARK   45  A    between atoms: _100  and  _101
REMARK   46  A    between atoms: _100  and  _103
REMARK   47  A    between atoms: _103  and  _104
REMARK   48  A    between atoms: _106  and  _108
REMARK   49  A    between atoms: _108  and  _109
REMARK   50  A    between atoms: _108  and  _111
REMARK   51  A    between atoms: _111  and  _112
REMARK   52  A    between atoms: _115  and  _117
REMARK   53  A    between atoms: _117  and  _118
REMARK   54  A    between atoms: _121  and  _123
REMARK   55  A    between atoms: _123  and  _124
REMARK   56  A    between atoms: _123  and  _126
REMARK   57  A    between atoms: _126  and  _127
REMARK   58  A    between atoms: _130  and  _132
REMARK   59  A    between atoms: _132  and  _133
REMARK   60  A    between atoms: _132  and  _135
REMARK   61  A    between atoms: _135  and  _136
REMARK   62  A    between atoms: _139  and  _141
REMARK   63  A    between atoms: _141  and  _142
REMARK   64  A    between atoms: _141  and  _144
REMARK   65  A    between atoms: _144  and  _145
REMARK   66  A    between atoms: _145  and  _146
REMARK   67  A    between atoms: _146  and  _147
REMARK   68  A    between atoms: _147  and  _148
REMARK   69  A    between atoms: _152  and  _154
REMARK   70  A    between atoms: _154  and  _155
REMARK   71  A    between atoms: _154  and  _157
REMARK   72  A    between atoms: _157  and  _158
REMARK   73  A    between atoms: _161  and  _163
REMARK   74  A    between atoms: _163  and  _164
REMARK   75  A    between atoms: _163  and  _166
REMARK   76  A    between atoms: _166  and  _167
REMARK   77  A    between atoms: _170  and  _172
REMARK   78  A    between atoms: _172  and  _173
REMARK   79  A    between atoms: _172  and  _175
REMARK   80  A    between atoms: _175  and  _176
REMARK   81  A    between atoms: _179  and  _181
REMARK   82  A    between atoms: _181  and  _182
REMARK   83  A    between atoms: _181  and  _184
REMARK   84  A    between atoms: _187  and  _189
REMARK   85  A    between atoms: _189  and  _190
REMARK   86  A    between atoms: _189  and  _192
REMARK   87  A    between atoms: _192  and  _193
REMARK   88  A    between atoms: _196  and  _198
REMARK   89  A    between atoms: _198  and  _199
REMARK   90  A    between atoms: _198  and  _201
REMARK   91  A    between atoms: _201  and  _202
REMARK   92  A    between atoms: _205  and  _207
REMARK   93  A    between atoms: _207  and  _208
REMARK   94  A    between atoms: _210  and  _212
REMARK   95  A    between atoms: _212  and  _213
REMARK   96  A    between atoms: _212  and  _215
REMARK   97  A    between atoms: _215  and  _216
REMARK   98  A    between atoms: _219  and  _221
REMARK   99  A    between atoms: _221  and  _222
REMARK  100  A    between atoms: _224  and  _226
REMARK  101  A    between atoms: _226  and  _227
REMARK  102  A    between atoms: _226  and  _229
REMARK  103  A    between atoms: _229  and  _230
REMARK  104  A    between atoms: _230  and  _231
REMARK  105  A    between atoms: _233  and  _235
REMARK  106  A    between atoms: _235  and  _236
REMARK  107  A    between atoms: _235  and  _238
REMARK  108  A    between atoms: _238  and  _239
REMARK  109  A    between atoms: _242  and  _244
REMARK  110  A    between atoms: _244  and  _245
REMARK  111  A    between atoms: _244  and  _247
REMARK  112  A    between atoms: _247  and  _248
REMARK  113  A    between atoms: _251  and  _253
REMARK  114  A    between atoms: _253  and  _254
REMARK  115  A    between atoms: _253  and  _256
REMARK  116  A    between atoms: _256  and  _257
REMARK  117  A    between atoms: _260  and  _262
REMARK  118  A    between atoms: _262  and  _263
REMARK  119  A    between atoms: _262  and  _265
REMARK  120  A    between atoms: _265  and  _266
REMARK  121  A    between atoms: _269  and  _271
REMARK  122  A    between atoms: _271  and  _272
REMARK  123  A    between atoms: _271  and  _274
REMARK  124  A    between atoms: _274  and  _275
REMARK  125  A    between atoms: _280  and  _282
REMARK  126  A    between atoms: _282  and  _283
REMARK  127  A    between atoms: _282  and  _285
REMARK  128  A    between atoms: _285  and  _286
REMARK  129  A    between atoms: _291  and  _293
REMARK  130  A    between atoms: _293  and  _294
REMARK  131  A    between atoms: _293  and  _296
REMARK  132  A    between atoms: _296  and  _297
REMARK  133  A    between atoms: _300  and  _302
REMARK  134  A    between atoms: _302  and  _303
REMARK  135  A    between atoms: _305  and  _307
REMARK  136  A    between atoms: _307  and  _308
REMARK  137  A    between atoms: _307  and  _310
REMARK  138  A    between atoms: _310  and  _311
REMARK  139  A    between atoms: _314  and  _316
REMARK  140  A    between atoms: _316  and  _317
REMARK  141  A    between atoms: _316  and  _319
REMARK  142  A    between atoms: _319  and  _320
REMARK  143  A    between atoms: _323  and  _325
REMARK  144  A    between atoms: _325  and  _326
REMARK  145  A    between atoms: _329  and  _331
REMARK  146  A    between atoms: _331  and  _332
REMARK  147  A    between atoms: _331  and  _334
REMARK  148  A    between atoms: _334  and  _335
REMARK  149  A    between atoms: _335  and  _336
REMARK  150  A    between atoms: _336  and  _337
REMARK  151  A    between atoms: _337  and  _338
REMARK  152  A    between atoms: _342  and  _344
REMARK  153  A    between atoms: _344  and  _345
REMARK  154  A    between atoms: _344  and  _347
REMARK  155  A    between atoms: _347  and  _348
REMARK  156  A    between atoms: _351  and  _353
REMARK  157  A    between atoms: _353  and  _354
REMARK  158  A    between atoms: _353  and  _356
REMARK  159  A    between atoms: _356  and  _357
REMARK  160  A    between atoms: _363  and  _365
REMARK  161  A    between atoms: _365  and  _366
REMARK  162  A    between atoms: _368  and  _370
REMARK  163  A    between atoms: _370  and  _371
REMARK  164  A    between atoms: _370  and  _373
REMARK  165  A    between atoms: _376  and  _378
REMARK  166  A    between atoms: _378  and  _379
REMARK  167  A    between atoms: _381  and  _383
REMARK  168  A    between atoms: _383  and  _384
REMARK  169  A    between atoms: _383  and  _386
REMARK  170  A    between atoms: _386  and  _387
REMARK  171  A    between atoms: _393  and  _395
REMARK  172  A    between atoms: _395  and  _396
REMARK  173  A    between atoms: _395  and  _398
REMARK  174  A    between atoms: _398  and  _399
REMARK  175  A    between atoms: _404  and  _405
REMARK  176  A    between atoms: _407  and  _409
REMARK  177  A    between atoms: _409  and  _410
REMARK  178  A    between atoms: _409  and  _412
REMARK  179  A    between atoms: _412  and  _413
REMARK  180  A    between atoms: _415  and  _417
REMARK  181  A    between atoms: _417  and  _418
REMARK  182  A    between atoms: _417  and  _420
REMARK  183  A    between atoms: _420  and  _421
REMARK  184  A    between atoms: _426  and  _427
REMARK  185  A    between atoms: _429  and  _431
REMARK  186  A    between atoms: _431  and  _432
REMARK  187  A    between atoms: _431  and  _434
REMARK  188  A    between atoms: _437  and  _439
REMARK  189  A    between atoms: _439  and  _440
REMARK  190  A    between atoms: _439  and  _442
REMARK  191  A    between atoms: _442  and  _443
REMARK  192  A    between atoms: _446  and  _448
REMARK  193  A    between atoms: _448  and  _449
REMARK  194  A    between atoms: _448  and  _451
REMARK  195  A    between atoms: _454  and  _456
REMARK  196  A    between atoms: _456  and  _457
REMARK  197  A    between atoms: _456  and  _459
REMARK  198  A    between atoms: _459  and  _460
REMARK  199  A    between atoms: _463  and  _465
REMARK  200  A    between atoms: _465  and  _466
REMARK  201  A    between atoms: _465  and  _468
REMARK  202  A    between atoms: _468  and  _469
REMARK  203  A    between atoms: _472  and  _474
REMARK  204  A    between atoms: _474  and  _475
REMARK  205  A    between atoms: _474  and  _477
REMARK  206  A    between atoms: _477  and  _478
REMARK  207  A    between atoms: _478  and  _479
REMARK  208  A    between atoms: _479  and  _480
REMARK  209  A    between atoms: _480  and  _481
REMARK  210  A    between atoms: _485  and  _487
REMARK  211  A    between atoms: _487  and  _488
REMARK  212  A    between atoms: _487  and  _490
REMARK  213  A    between atoms: _490  and  _491
REMARK  214  A    between atoms: _496  and  _498
REMARK  215  A    between atoms: _498  and  _499
REMARK  216  A    between atoms: _498  and  _501
REMARK  217  A    between atoms: _501  and  _502
REMARK  218  A    between atoms: _512  and  _514
REMARK  219  A    between atoms: _514  and  _515
REMARK  220  A    between atoms: _514  and  _517
REMARK  221  A    between atoms: _517  and  _518
REMARK  222  A    between atoms: _518  and  _519
REMARK  223  A    between atoms: _522  and  _524
REMARK  224  A    between atoms: _524  and  _525
REMARK  225  A    between atoms: _524  and  _527
REMARK  226  A    between atoms: _527  and  _528
REMARK  227  A    between atoms: _530  and  _532
REMARK  228  A    between atoms: _532  and  _533
REMARK  229  A    between atoms: _532  and  _535
REMARK  230  A    between atoms: _535  and  _536
REMARK  231  A    between atoms: _542  and  _544
REMARK  232  A    between atoms: _544  and  _545
REMARK  233  A    between atoms: _544  and  _547
REMARK  234  A    between atoms: _547  and  _548
REMARK  235  A    between atoms: _551  and  _553
REMARK  236  A    between atoms: _553  and  _554
REMARK  237  A    between atoms: _553  and  _556
REMARK  238  A    between atoms: _559  and  _561
REMARK  239  A    between atoms: _561  and  _562
REMARK  240  A    between atoms: _564  and  _566
REMARK  241  A    between atoms: _566  and  _567
REMARK  242  A    between atoms: _566  and  _569
REMARK  243  A    between atoms: _569  and  _570
REMARK  244  A    between atoms: _573  and  _575
REMARK  245  A    between atoms: _575  and  _576
REMARK  246  A    between atoms: _575  and  _578
REMARK  247  A    between atoms: _578  and  _579
REMARK  248  A    between atoms: _579  and  _580
REMARK  249  A    between atoms: _580  and  _581
REMARK  250  A    between atoms: _581  and  _582
REMARK  251  A    between atoms: _586  and  _588
REMARK  252  A    between atoms: _588  and  _589
REMARK  253  A    between atoms: _588  and  _591
REMARK                            x       y       z     vdW  Elec       q    Type
REMARK                         _______ _______ _______ _____ _____    ______ ____
ROOT
ATOM      1  O   HOH     1      -1.337   0.069 -32.430  0.00  0.00    +0.000 OA
ENDROOT
TORSDOF 0
REMARK  Name = ../refined-set-2016/3d0b/3d0b_pocket.pdb
REMARK  253 active torsions:
REMARK  status: ('A' for Active; 'I' for Inactive)
REMARK    1  A    between atoms: _1  and  _3
REMARK    2  A    between atoms: _3  and  _4
REMARK    3  A    between atoms: _3  and  _6
REMARK    4  A    between atoms: _6  and  _7
REMARK    5  A    between atoms: _13  and  _15
REMARK    6  A    between atoms: _15  and  _16
REMARK    7  A    between atoms: _15  and  _18
REMARK    8  A    between atoms: _18  and  _19
REMARK    9  A    between atoms: _19  and  _20
REMARK   10  A    between atoms: _25  and  _27
REMARK   11  A    between atoms: _27  and  _28
REMARK   12  A    between atoms: _27  and  _30
REMARK   13  A    between atoms: _30  and  _31
REMARK   14  A    between atoms: _34  and  _36
REMARK   15  A    between atoms: _36  and  _37
REMARK   16  A    between atoms: _36  and  _39
REMARK   17  A    between atoms: _39  and  _40
REMARK   18  A    between atoms: _40  and  _41
REMARK   19  A    between atoms: _43  and  _45
REMARK   20  A    between atoms: _45  and  _46
REMARK   21  A    between atoms: _45  and  _48
REMARK   22  A    between atoms: _48  and  _49
REMARK   23  A    between atoms: _49  and  _50
REMARK   24  A    between atoms: _53  and  _55
REMARK   25  A    between atoms: _55  and  _56
REMARK   26  A    between atoms: _55  and  _58
REMARK   27  A    between atoms: _58  and  _59
REMARK   28  A    between atoms: _62  and  _64
REMARK   29  A    between atoms: _64  and  _65
REMARK   30  A    between atoms: _64  and  _67
REMARK   31  A    between atoms: _67  and  _68
REMARK   32  A    between atoms: _71  and  _73
REMARK   33  A    between atoms: _73  and  _74
REMARK   34  A    between atoms: _73  and  _76
REMARK   35  A    between atoms: _76  and  _77
REMARK   36  A    between atoms: _79  and  _81
REMARK   37  A    between atoms: _81  and  _82
REMARK   38  A    between atoms: _81  and  _84
REMARK   39  A    between atoms: _84  and  _85
REMARK   40  A    between atoms: _90  and  _92
REMARK   41  A    between atoms: _92  and  _93
REMARK   42  A    between atoms: _92  and  _95
REMARK   43  A    between atoms: _95  and  _96
REMARK   44  A    between atoms: _98  and  _100
REMARK   45  A    between atoms: _100  and  _101
REMARK   46  A    between atoms: _100  and  _103
REMARK   47  A    between atoms: _103  and  _104
REMARK   48  A    between atoms: _106  and  _108
REMARK   49  A    between atoms: _108  and  _109
REMARK   50  A    between atoms: _108  and  _111
REMARK   51  A    between atoms: _111  and  _112
REMARK   52  A    between atoms: _115  and  _117
REMARK   53  A    between atoms: _117  and  _118
REMARK   54  A    between atoms: _121  and  _123
REMARK   55  A    between atoms: _123  and  _124
REMARK   56  A    between atoms: _123  and  _126
REMARK   57  A    between atoms: _126  and  _127
REMARK   58  A    between atoms: _130  and  _132
REMARK   59  A    between atoms: _132  and  _133
REMARK   60  A    between atoms: _132  and  _135
REMARK   61  A    between atoms: _135  and  _136
REMARK   62  A    between atoms: _139  and  _141
REMARK   63  A    between atoms: _141  and  _142
REMARK   64  A    between atoms: _141  and  _144
REMARK   65  A    between atoms: _144  and  _145
REMARK   66  A    between atoms: _145  and  _146
REMARK   67  A    between atoms: _146  and  _147
REMARK   68  A    between atoms: _147  and  _148
REMARK   69  A    between atoms: _152  and  _154
REMARK   70  A    between atoms: _154  and  _155
REMARK   71  A    between atoms: _154  and  _157
REMARK   72  A    between atoms: _157  and  _158
REMARK   73  A    between atoms: _161  and  _163
REMARK   74  A    between atoms: _163  and  _164
REMARK   75  A    between atoms: _163  and  _166
REMARK   76  A    between atoms: _166  and  _167
REMARK   77  A    between atoms: _170  and  _172
REMARK   78  A    between atoms: _172  and  _173
REMARK   79  A    between atoms: _172  and  _175
REMARK   80  A    between atoms: _175  and  _176
REMARK   81  A    between atoms: _179  and  _181
REMARK   82  A    between atoms: _181  and  _182
REMARK   83  A    between atoms: _181  and  _184
REMARK   84  A    between atoms: _187  and  _189
REMARK   85  A    between atoms: _189  and  _190
REMARK   86  A    between atoms: _189  and  _192
REMARK   87  A    between atoms: _192  and  _193
REMARK   88  A    between atoms: _196  and  _198
REMARK   89  A    between atoms: _198  and  _199
REMARK   90  A    between atoms: _198  and  _201
REMARK   91  A    between atoms: _201  and  _202
REMARK   92  A    between atoms: _205  and  _207
REMARK   93  A    between atoms: _207  and  _208
REMARK   94  A    between atoms: _210  and  _212
REMARK   95  A    between atoms: _212  and  _213
REMARK   96  A    between atoms: _212  and  _215
REMARK   97  A    between atoms: _215  and  _216
REMARK   98  A    between atoms: _219  and  _221
REMARK   99  A    between atoms: _221  and  _222
REMARK  100  A    between atoms: _224  and  _226
REMARK  101  A    between atoms: _226  and  _227
REMARK  102  A    between atoms: _226  and  _229
REMARK  103  A    between atoms: _229  and  _230
REMARK  104  A    between atoms: _230  and  _231
REMARK  105  A    between atoms: _233  and  _235
REMARK  106  A    between atoms: _235  and  _236
REMARK  107  A    between atoms: _235  and  _238
REMARK  108  A    between atoms: _238  and  _239
REMARK  109  A    between atoms: _242  and  _244
REMARK  110  A    between atoms: _244  and  _245
REMARK  111  A    between atoms: _244  and  _247
REMARK  112  A    between atoms: _247  and  _248
REMARK  113  A    between atoms: _251  and  _253
REMARK  114  A    between atoms: _253  and  _254
REMARK  115  A    between atoms: _253  and  _256
REMARK  116  A    between atoms: _256  and  _257
REMARK  117  A    between atoms: _260  and  _262
REMARK  118  A    between atoms: _262  and  _263
REMARK  119  A    between atoms: _262  and  _265
REMARK  120  A    between atoms: _265  and  _266
REMARK  121  A    between atoms: _269  and  _271
REMARK  122  A    between atoms: _271  and  _272
REMARK  123  A    between atoms: _271  and  _274
REMARK  124  A    between atoms: _274  and  _275
REMARK  125  A    between atoms: _280  and  _282
REMARK  126  A    between atoms: _282  and  _283
REMARK  127  A    between atoms: _282  and  _285
REMARK  128  A    between atoms: _285  and  _286
REMARK  129  A    between atoms: _291  and  _293
REMARK  130  A    between atoms: _293  and  _294
REMARK  131  A    between atoms: _293  and  _296
REMARK  132  A    between atoms: _296  and  _297
REMARK  133  A    between atoms: _300  and  _302
REMARK  134  A    between atoms: _302  and  _303
REMARK  135  A    between atoms: _305  and  _307
REMARK  136  A    between atoms: _307  and  _308
REMARK  137  A    between atoms: _307  and  _310
REMARK  138  A    between atoms: _310  and  _311
REMARK  139  A    between atoms: _314  and  _316
REMARK  140  A    between atoms: _316  and  _317
REMARK  141  A    between atoms: _316  and  _319
REMARK  142  A    between atoms: _319  and  _320
REMARK  143  A    between atoms: _323  and  _325
REMARK  144  A    between atoms: _325  and  _326
REMARK  145  A    between atoms: _329  and  _331
REMARK  146  A    between atoms: _331  and  _332
REMARK  147  A    between atoms: _331  and  _334
REMARK  148  A    between atoms: _334  and  _335
REMARK  149  A    between atoms: _335  and  _336
REMARK  150  A    between atoms: _336  and  _337
REMARK  151  A    between atoms: _337  and  _338
REMARK  152  A    between atoms: _342  and  _344
REMARK  153  A    between atoms: _344  and  _345
REMARK  154  A    between atoms: _344  and  _347
REMARK  155  A    between atoms: _347  and  _348
REMARK  156  A    between atoms: _351  and  _353
REMARK  157  A    between atoms: _353  and  _354
REMARK  158  A    between atoms: _353  and  _356
REMARK  159  A    between atoms: _356  and  _357
REMARK  160  A    between atoms: _363  and  _365
REMARK  161  A    between atoms: _365  and  _366
REMARK  162  A    between atoms: _368  and  _370
REMARK  163  A    between atoms: _370  and  _371
REMARK  164  A    between atoms: _370  and  _373
REMARK  165  A    between atoms: _376  and  _378
REMARK  166  A    between atoms: _378  and  _379
REMARK  167  A    between atoms: _381  and  _383
REMARK  168  A    between atoms: _383  and  _384
REMARK  169  A    between atoms: _383  and  _386
REMARK  170  A    between atoms: _386  and  _387
REMARK  171  A    between atoms: _393  and  _395
REMARK  172  A    between atoms: _395  and  _396
REMARK  173  A    between atoms: _395  and  _398
REMARK  174  A    between atoms: _398  and  _399
REMARK  175  A    between atoms: _404  and  _405
REMARK  176  A    between atoms: _407  and  _409
REMARK  177  A    between atoms: _409  and  _410
REMARK  178  A    between atoms: _409  and  _412
REMARK  179  A    between atoms: _412  and  _413
REMARK  180  A    between atoms: _415  and  _417
REMARK  181  A    between atoms: _417  and  _418
REMARK  182  A    between atoms: _417  and  _420
REMARK  183  A    between atoms: _420  and  _421
REMARK  184  A    between atoms: _426  and  _427
REMARK  185  A    between atoms: _429  and  _431
REMARK  186  A    between atoms: _431  and  _432
REMARK  187  A    between atoms: _431  and  _434
REMARK  188  A    between atoms: _437  and  _439
REMARK  189  A    between atoms: _439  and  _440
REMARK  190  A    between atoms: _439  and  _442
REMARK  191  A    between atoms: _442  and  _443
REMARK  192  A    between atoms: _446  and  _448
REMARK  193  A    between atoms: _448  and  _449
REMARK  194  A    between atoms: _448  and  _451
REMARK  195  A    between atoms: _454  and  _456
REMARK  196  A    between atoms: _456  and  _457
REMARK  197  A    between atoms: _456  and  _459
REMARK  198  A    between atoms: _459  and  _460
REMARK  199  A    between atoms: _463  and  _465
REMARK  200  A    between atoms: _465  and  _466
REMARK  201  A    between atoms: _465  and  _468
REMARK  202  A    between atoms: _468  and  _469
REMARK  203  A    between atoms: _472  and  _474
REMARK  204  A    between atoms: _474  and  _475
REMARK  205  A    between atoms: _474  and  _477
REMARK  206  A    between atoms: _477  and  _478
REMARK  207  A    between atoms: _478  and  _479
REMARK  208  A    between atoms: _479  and  _480
REMARK  209  A    between atoms: _480  and  _481
REMARK  210  A    between atoms: _485  and  _487
REMARK  211  A    between atoms: _487  and  _488
REMARK  212  A    between atoms: _487  and  _490
REMARK  213  A    between atoms: _490  and  _491
REMARK  214  A    between atoms: _496  and  _498
REMARK  215  A    between atoms: _498  and  _499
REMARK  216  A    between atoms: _498  and  _501
REMARK  217  A    between atoms: _501  and  _502
REMARK  218  A    between atoms: _512  and  _514
REMARK  219  A    between atoms: _514  and  _515
REMARK  220  A    between atoms: _514  and  _517
REMARK  221  A    between atoms: _517  and  _518
REMARK  222  A    between atoms: _518  and  _519
REMARK  223  A    between atoms: _522  and  _524
REMARK  224  A    between atoms: _524  and  _525
REMARK  225  A    between atoms: _524  and  _527
REMARK  226  A    between atoms: _527  and  _528
REMARK  227  A    between atoms: _530  and  _532
REMARK  228  A    between atoms: _532  and  _533
REMARK  229  A    between atoms: _532  and  _535
REMARK  230  A    between atoms: _535  and  _536
REMARK  231  A    between atoms: _542  and  _544
REMARK  232  A    between atoms: _544  and  _545
REMARK  233  A    between atoms: _544  and  _547
REMARK  234  A    between atoms: _547  and  _548
REMARK  235  A    between atoms: _551  and  _553
REMARK  236  A    between atoms: _553  and  _554
REMARK  237  A    between atoms: _553  and  _556
REMARK  238  A    between atoms: _559  and  _561
REMARK  239  A    between atoms: _561  and  _562
REMARK  240  A    between atoms: _564  and  _566
REMARK  241  A    between atoms: _566  and  _567
REMARK  242  A    between atoms: _566  and  _569
REMARK  243  A    between atoms: _569  and  _570
REMARK  244  A    between atoms: _573  and  _575
REMARK  245  A    between atoms: _575  and  _576
REMARK  246  A    between atoms: _575  and  _578
REMARK  247  A    between atoms: _578  and  _579
REMARK  248  A    between atoms: _579  and  _580
REMARK  249  A    between atoms: _580  and  _581
REMARK  250  A    between atoms: _581  and  _582
REMARK  251  A    between atoms: _586  and  _588
REMARK  252  A    between atoms: _588  and  _589
REMARK  253  A    between atoms: _588  and  _591
REMARK                            x       y       z     vdW  Elec       q    Type
REMARK                         _______ _______ _______ _____ _____    ______ ____
ROOT
ATOM      1  O   HOH     1       0.279  -5.857 -34.193  0.00  0.00    +0.000 OA
ENDROOT
TORSDOF 0
REMARK  Name = ../refined-set-2016/3d0b/3d0b_pocket.pdb
REMARK  253 active torsions:
REMARK  status: ('A' for Active; 'I' for Inactive)
REMARK    1  A    between atoms: _1  and  _3
REMARK    2  A    between atoms: _3  and  _4
REMARK    3  A    between atoms: _3  and  _6
REMARK    4  A    between atoms: _6  and  _7
REMARK    5  A    between atoms: _13  and  _15
REMARK    6  A    between atoms: _15  and  _16
REMARK    7  A    between atoms: _15  and  _18
REMARK    8  A    between atoms: _18  and  _19
REMARK    9  A    between atoms: _19  and  _20
REMARK   10  A    between atoms: _25  and  _27
REMARK   11  A    between atoms: _27  and  _28
REMARK   12  A    between atoms: _27  and  _30
REMARK   13  A    between atoms: _30  and  _31
REMARK   14  A    between atoms: _34  and  _36
REMARK   15  A    between atoms: _36  and  _37
REMARK   16  A    between atoms: _36  and  _39
REMARK   17  A    between atoms: _39  and  _40
REMARK   18  A    between atoms: _40  and  _41
REMARK   19  A    between atoms: _43  and  _45
REMARK   20  A    between atoms: _45  and  _46
REMARK   21  A    between atoms: _45  and  _48
REMARK   22  A    between atoms: _48  and  _49
REMARK   23  A    between atoms: _49  and  _50
REMARK   24  A    between atoms: _53  and  _55
REMARK   25  A    between atoms: _55  and  _56
REMARK   26  A    between atoms: _55  and  _58
REMARK   27  A    between atoms: _58  and  _59
REMARK   28  A    between atoms: _62  and  _64
REMARK   29  A    between atoms: _64  and  _65
REMARK   30  A    between atoms: _64  and  _67
REMARK   31  A    between atoms: _67  and  _68
REMARK   32  A    between atoms: _71  and  _73
REMARK   33  A    between atoms: _73  and  _74
REMARK   34  A    between atoms: _73  and  _76
REMARK   35  A    between atoms: _76  and  _77
REMARK   36  A    between atoms: _79  and  _81
REMARK   37  A    between atoms: _81  and  _82
REMARK   38  A    between atoms: _81  and  _84
REMARK   39  A    between atoms: _84  and  _85
REMARK   40  A    between atoms: _90  and  _92
REMARK   41  A    between atoms: _92  and  _93
REMARK   42  A    between atoms: _92  and  _95
REMARK   43  A    between atoms: _95  and  _96
REMARK   44  A    between atoms: _98  and  _100
REMARK   45  A    between atoms: _100  and  _101
REMARK   46  A    between atoms: _100  and  _103
REMARK   47  A    between atoms: _103  and  _104
REMARK   48  A    between atoms: _106  and  _108
REMARK   49  A    between atoms: _108  and  _109
REMARK   50  A    between atoms: _108  and  _111
REMARK   51  A    between atoms: _111  and  _112
REMARK   52  A    between atoms: _115  and  _117
REMARK   53  A    between atoms: _117  and  _118
REMARK   54  A    between atoms: _121  and  _123
REMARK   55  A    between atoms: _123  and  _124
REMARK   56  A    between atoms: _123  and  _126
REMARK   57  A    between atoms: _126  and  _127
REMARK   58  A    between atoms: _130  and  _132
REMARK   59  A    between atoms: _132  and  _133
REMARK   60  A    between atoms: _132  and  _135
REMARK   61  A    between atoms: _135  and  _136
REMARK   62  A    between atoms: _139  and  _141
REMARK   63  A    between atoms: _141  and  _142
REMARK   64  A    between atoms: _141  and  _144
REMARK   65  A    between atoms: _144  and  _145
REMARK   66  A    between atoms: _145  and  _146
REMARK   67  A    between atoms: _146  and  _147
REMARK   68  A    between atoms: _147  and  _148
REMARK   69  A    between atoms: _152  and  _154
REMARK   70  A    between atoms: _154  and  _155
REMARK   71  A    between atoms: _154  and  _157
REMARK   72  A    between atoms: _157  and  _158
REMARK   73  A    between atoms: _161  and  _163
REMARK   74  A    between atoms: _163  and  _164
REMARK   75  A    between atoms: _163  and  _166
REMARK   76  A    between atoms: _166  and  _167
REMARK   77  A    between atoms: _170  and  _172
REMARK   78  A    between atoms: _172  and  _173
REMARK   79  A    between atoms: _172  and  _175
REMARK   80  A    between atoms: _175  and  _176
REMARK   81  A    between atoms: _179  and  _181
REMARK   82  A    between atoms: _181  and  _182
REMARK   83  A    between atoms: _181  and  _184
REMARK   84  A    between atoms: _187  and  _189
REMARK   85  A    between atoms: _189  and  _190
REMARK   86  A    between atoms: _189  and  _192
REMARK   87  A    between atoms: _192  and  _193
REMARK   88  A    between atoms: _196  and  _198
REMARK   89  A    between atoms: _198  and  _199
REMARK   90  A    between atoms: _198  and  _201
REMARK   91  A    between atoms: _201  and  _202
REMARK   92  A    between atoms: _205  and  _207
REMARK   93  A    between atoms: _207  and  _208
REMARK   94  A    between atoms: _210  and  _212
REMARK   95  A    between atoms: _212  and  _213
REMARK   96  A    between atoms: _212  and  _215
REMARK   97  A    between atoms: _215  and  _216
REMARK   98  A    between atoms: _219  and  _221
REMARK   99  A    between atoms: _221  and  _222
REMARK  100  A    between atoms: _224  and  _226
REMARK  101  A    between atoms: _226  and  _227
REMARK  102  A    between atoms: _226  and  _229
REMARK  103  A    between atoms: _229  and  _230
REMARK  104  A    between atoms: _230  and  _231
REMARK  105  A    between atoms: _233  and  _235
REMARK  106  A    between atoms: _235  and  _236
REMARK  107  A    between atoms: _235  and  _238
REMARK  108  A    between atoms: _238  and  _239
REMARK  109  A    between atoms: _242  and  _244
REMARK  110  A    between atoms: _244  and  _245
REMARK  111  A    between atoms: _244  and  _247
REMARK  112  A    between atoms: _247  and  _248
REMARK  113  A    between atoms: _251  and  _253
REMARK  114  A    between atoms: _253  and  _254
REMARK  115  A    between atoms: _253  and  _256
REMARK  116  A    between atoms: _256  and  _257
REMARK  117  A    between atoms: _260  and  _262
REMARK  118  A    between atoms: _262  and  _263
REMARK  119  A    between atoms: _262  and  _265
REMARK  120  A    between atoms: _265  and  _266
REMARK  121  A    between atoms: _269  and  _271
REMARK  122  A    between atoms: _271  and  _272
REMARK  123  A    between atoms: _271  and  _274
REMARK  124  A    between atoms: _274  and  _275
REMARK  125  A    between atoms: _280  and  _282
REMARK  126  A    between atoms: _282  and  _283
REMARK  127  A    between atoms: _282  and  _285
REMARK  128  A    between atoms: _285  and  _286
REMARK  129  A    between atoms: _291  and  _293
REMARK  130  A    between atoms: _293  and  _294
REMARK  131  A    between atoms: _293  and  _296
REMARK  132  A    between atoms: _296  and  _297
REMARK  133  A    between atoms: _300  and  _302
REMARK  134  A    between atoms: _302  and  _303
REMARK  135  A    between atoms: _305  and  _307
REMARK  136  A    between atoms: _307  and  _308
REMARK  137  A    between atoms: _307  and  _310
REMARK  138  A    between atoms: _310  and  _311
REMARK  139  A    between atoms: _314  and  _316
REMARK  140  A    between atoms: _316  and  _317
REMARK  141  A    between atoms: _316  and  _319
REMARK  142  A    between atoms: _319  and  _320
REMARK  143  A    between atoms: _323  and  _325
REMARK  144  A    between atoms: _325  and  _326
REMARK  145  A    between atoms: _329  and  _331
REMARK  146  A    between atoms: _331  and  _332
REMARK  147  A    between atoms: _331  and  _334
REMARK  148  A    between atoms: _334  and  _335
REMARK  149  A    between atoms: _335  and  _336
REMARK  150  A    between atoms: _336  and  _337
REMARK  151  A    between atoms: _337  and  _338
REMARK  152  A    between atoms: _342  and  _344
REMARK  153  A    between atoms: _344  and  _345
REMARK  154  A    between atoms: _344  and  _347
REMARK  155  A    between atoms: _347  and  _348
REMARK  156  A    between atoms: _351  and  _353
REMARK  157  A    between atoms: _353  and  _354
REMARK  158  A    between atoms: _353  and  _356
REMARK  159  A    between atoms: _356  and  _357
REMARK  160  A    between atoms: _363  and  _365
REMARK  161  A    between atoms: _365  and  _366
REMARK  162  A    between atoms: _368  and  _370
REMARK  163  A    between atoms: _370  and  _371
REMARK  164  A    between atoms: _370  and  _373
REMARK  165  A    between atoms: _376  and  _378
REMARK  166  A    between atoms: _378  and  _379
REMARK  167  A    between atoms: _381  and  _383
REMARK  168  A    between atoms: _383  and  _384
REMARK  169  A    between atoms: _383  and  _386
REMARK  170  A    between atoms: _386  and  _387
REMARK  171  A    between atoms: _393  and  _395
REMARK  172  A    between atoms: _395  and  _396
REMARK  173  A    between atoms: _395  and  _398
REMARK  174  A    between atoms: _398  and  _399
REMARK  175  A    between atoms: _404  and  _405
REMARK  176  A    between atoms: _407  and  _409
REMARK  177  A    between atoms: _409  and  _410
REMARK  178  A    between atoms: _409  and  _412
REMARK  179  A    between atoms: _412  and  _413
REMARK  180  A    between atoms: _415  and  _417
REMARK  181  A    between atoms: _417  and  _418
REMARK  182  A    between atoms: _417  and  _420
REMARK  183  A    between atoms: _420  and  _421
REMARK  184  A    between atoms: _426  and  _427
REMARK  185  A    between atoms: _429  and  _431
REMARK  186  A    between atoms: _431  and  _432
REMARK  187  A    between atoms: _431  and  _434
REMARK  188  A    between atoms: _437  and  _439
REMARK  189  A    between atoms: _439  and  _440
REMARK  190  A    between atoms: _439  and  _442
REMARK  191  A    between atoms: _442  and  _443
REMARK  192  A    between atoms: _446  and  _448
REMARK  193  A    between atoms: _448  and  _449
REMARK  194  A    between atoms: _448  and  _451
REMARK  195  A    between atoms: _454  and  _456
REMARK  196  A    between atoms: _456  and  _457
REMARK  197  A    between atoms: _456  and  _459
REMARK  198  A    between atoms: _459  and  _460
REMARK  199  A    between atoms: _463  and  _465
REMARK  200  A    between atoms: _465  and  _466
REMARK  201  A    between atoms: _465  and  _468
REMARK  202  A    between atoms: _468  and  _469
REMARK  203  A    between atoms: _472  and  _474
REMARK  204  A    between atoms: _474  and  _475
REMARK  205  A    between atoms: _474  and  _477
REMARK  206  A    between atoms: _477  and  _478
REMARK  207  A    between atoms: _478  and  _479
REMARK  208  A    between atoms: _479  and  _480
REMARK  209  A    between atoms: _480  and  _481
REMARK  210  A    between atoms: _485  and  _487
REMARK  211  A    between atoms: _487  and  _488
REMARK  212  A    between atoms: _487  and  _490
REMARK  213  A    between atoms: _490  and  _491
REMARK  214  A    between atoms: _496  and  _498
REMARK  215  A    between atoms: _498  and  _499
REMARK  216  A    between atoms: _498  and  _501
REMARK  217  A    between atoms: _501  and  _502
REMARK  218  A    between atoms: _512  and  _514
REMARK  219  A    between atoms: _514  and  _515
REMARK  220  A    between atoms: _514  and  _517
REMARK  221  A    between atoms: _517  and  _518
REMARK  222  A    between atoms: _518  and  _519
REMARK  223  A    between atoms: _522  and  _524
REMARK  224  A    between atoms: _524  and  _525
REMARK  225  A    between atoms: _524  and  _527
REMARK  226  A    between atoms: _527  and  _528
REMARK  227  A    between atoms: _530  and  _532
REMARK  228  A    between atoms: _532  and  _533
REMARK  229  A    between atoms: _532  and  _535
REMARK  230  A    between atoms: _535  and  _536
REMARK  231  A    between atoms: _542  and  _544
REMARK  232  A    between atoms: _544  and  _545
REMARK  233  A    between atoms: _544  and  _547
REMARK  234  A    between atoms: _547  and  _548
REMARK  235  A    between atoms: _551  and  _553
REMARK  236  A    between atoms: _553  and  _554
REMARK  237  A    between atoms: _553  and  _556
REMARK  238  A    between atoms: _559  and  _561
REMARK  239  A    between atoms: _561  and  _562
REMARK  240  A    between atoms: _564  and  _566
REMARK  241  A    between atoms: _566  and  _567
REMARK  242  A    between atoms: _566  and  _569
REMARK  243  A    between atoms: _569  and  _570
REMARK  244  A    between atoms: _573  and  _575
REMARK  245  A    between atoms: _575  and  _576
REMARK  246  A    between atoms: _575  and  _578
REMARK  247  A    between atoms: _578  and  _579
REMARK  248  A    between atoms: _579  and  _580
REMARK  249  A    between atoms: _580  and  _581
REMARK  250  A    between atoms: _581  and  _582
REMARK  251  A    between atoms: _586  and  _588
REMARK  252  A    between atoms: _588  and  _589
REMARK  253  A    between atoms: _588  and  _591
REMARK                            x       y       z     vdW  Elec       q    Type
REMARK                         _______ _______ _______ _____ _____    ______ ____
ROOT
ATOM      1  O   HOH     1       2.553  -3.816 -28.252  0.00  0.00    +0.000 OA
ENDROOT
TORSDOF 0
REMARK  Name = ../refined-set-2016/3d0b/3d0b_pocket.pdb
REMARK  253 active torsions:
REMARK  status: ('A' for Active; 'I' for Inactive)
REMARK    1  A    between atoms: _1  and  _3
REMARK    2  A    between atoms: _3  and  _4
REMARK    3  A    between atoms: _3  and  _6
REMARK    4  A    between atoms: _6  and  _7
REMARK    5  A    between atoms: _13  and  _15
REMARK    6  A    between atoms: _15  and  _16
REMARK    7  A    between atoms: _15  and  _18
REMARK    8  A    between atoms: _18  and  _19
REMARK    9  A    between atoms: _19  and  _20
REMARK   10  A    between atoms: _25  and  _27
REMARK   11  A    between atoms: _27  and  _28
REMARK   12  A    between atoms: _27  and  _30
REMARK   13  A    between atoms: _30  and  _31
REMARK   14  A    between atoms: _34  and  _36
REMARK   15  A    between atoms: _36  and  _37
REMARK   16  A    between atoms: _36  and  _39
REMARK   17  A    between atoms: _39  and  _40
REMARK   18  A    between atoms: _40  and  _41
REMARK   19  A    between atoms: _43  and  _45
REMARK   20  A    between atoms: _45  and  _46
REMARK   21  A    between atoms: _45  and  _48
REMARK   22  A    between atoms: _48  and  _49
REMARK   23  A    between atoms: _49  and  _50
REMARK   24  A    between atoms: _53  and  _55
REMARK   25  A    between atoms: _55  and  _56
REMARK   26  A    between atoms: _55  and  _58
REMARK   27  A    between atoms: _58  and  _59
REMARK   28  A    between atoms: _62  and  _64
REMARK   29  A    between atoms: _64  and  _65
REMARK   30  A    between atoms: _64  and  _67
REMARK   31  A    between atoms: _67  and  _68
REMARK   32  A    between atoms: _71  and  _73
REMARK   33  A    between atoms: _73  and  _74
REMARK   34  A    between atoms: _73  and  _76
REMARK   35  A    between atoms: _76  and  _77
REMARK   36  A    between atoms: _79  and  _81
REMARK   37  A    between atoms: _81  and  _82
REMARK   38  A    between atoms: _81  and  _84
REMARK   39  A    between atoms: _84  and  _85
REMARK   40  A    between atoms: _90  and  _92
REMARK   41  A    between atoms: _92  and  _93
REMARK   42  A    between atoms: _92  and  _95
REMARK   43  A    between atoms: _95  and  _96
REMARK   44  A    between atoms: _98  and  _100
REMARK   45  A    between atoms: _100  and  _101
REMARK   46  A    between atoms: _100  and  _103
REMARK   47  A    between atoms: _103  and  _104
REMARK   48  A    between atoms: _106  and  _108
REMARK   49  A    between atoms: _108  and  _109
REMARK   50  A    between atoms: _108  and  _111
REMARK   51  A    between atoms: _111  and  _112
REMARK   52  A    between atoms: _115  and  _117
REMARK   53  A    between atoms: _117  and  _118
REMARK   54  A    between atoms: _121  and  _123
REMARK   55  A    between atoms: _123  and  _124
REMARK   56  A    between atoms: _123  and  _126
REMARK   57  A    between atoms: _126  and  _127
REMARK   58  A    between atoms: _130  and  _132
REMARK   59  A    between atoms: _132  and  _133
REMARK   60  A    between atoms: _132  and  _135
REMARK   61  A    between atoms: _135  and  _136
REMARK   62  A    between atoms: _139  and  _141
REMARK   63  A    between atoms: _141  and  _142
REMARK   64  A    between atoms: _141  and  _144
REMARK   65  A    between atoms: _144  and  _145
REMARK   66  A    between atoms: _145  and  _146
REMARK   67  A    between atoms: _146  and  _147
REMARK   68  A    between atoms: _147  and  _148
REMARK   69  A    between atoms: _152  and  _154
REMARK   70  A    between atoms: _154  and  _155
REMARK   71  A    between atoms: _154  and  _157
REMARK   72  A    between atoms: _157  and  _158
REMARK   73  A    between atoms: _161  and  _163
REMARK   74  A    between atoms: _163  and  _164
REMARK   75  A    between atoms: _163  and  _166
REMARK   76  A    between atoms: _166  and  _167
REMARK   77  A    between atoms: _170  and  _172
REMARK   78  A    between atoms: _172  and  _173
REMARK   79  A    between atoms: _172  and  _175
REMARK   80  A    between atoms: _175  and  _176
REMARK   81  A    between atoms: _179  and  _181
REMARK   82  A    between atoms: _181  and  _182
REMARK   83  A    between atoms: _181  and  _184
REMARK   84  A    between atoms: _187  and  _189
REMARK   85  A    between atoms: _189  and  _190
REMARK   86  A    between atoms: _189  and  _192
REMARK   87  A    between atoms: _192  and  _193
REMARK   88  A    between atoms: _196  and  _198
REMARK   89  A    between atoms: _198  and  _199
REMARK   90  A    between atoms: _198  and  _201
REMARK   91  A    between atoms: _201  and  _202
REMARK   92  A    between atoms: _205  and  _207
REMARK   93  A    between atoms: _207  and  _208
REMARK   94  A    between atoms: _210  and  _212
REMARK   95  A    between atoms: _212  and  _213
REMARK   96  A    between atoms: _212  and  _215
REMARK   97  A    between atoms: _215  and  _216
REMARK   98  A    between atoms: _219  and  _221
REMARK   99  A    between atoms: _221  and  _222
REMARK  100  A    between atoms: _224  and  _226
REMARK  101  A    between atoms: _226  and  _227
REMARK  102  A    between atoms: _226  and  _229
REMARK  103  A    between atoms: _229  and  _230
REMARK  104  A    between atoms: _230  and  _231
REMARK  105  A    between atoms: _233  and  _235
REMARK  106  A    between atoms: _235  and  _236
REMARK  107  A    between atoms: _235  and  _238
REMARK  108  A    between atoms: _238  and  _239
REMARK  109  A    between atoms: _242  and  _244
REMARK  110  A    between atoms: _244  and  _245
REMARK  111  A    between atoms: _244  and  _247
REMARK  112  A    between atoms: _247  and  _248
REMARK  113  A    between atoms: _251  and  _253
REMARK  114  A    between atoms: _253  and  _254
REMARK  115  A    between atoms: _253  and  _256
REMARK  116  A    between atoms: _256  and  _257
REMARK  117  A    between atoms: _260  and  _262
REMARK  118  A    between atoms: _262  and  _263
REMARK  119  A    between atoms: _262  and  _265
REMARK  120  A    between atoms: _265  and  _266
REMARK  121  A    between atoms: _269  and  _271
REMARK  122  A    between atoms: _271  and  _272
REMARK  123  A    between atoms: _271  and  _274
REMARK  124  A    between atoms: _274  and  _275
REMARK  125  A    between atoms: _280  and  _282
REMARK  126  A    between atoms: _282  and  _283
REMARK  127  A    between atoms: _282  and  _285
REMARK  128  A    between atoms: _285  and  _286
REMARK  129  A    between atoms: _291  and  _293
REMARK  130  A    between atoms: _293  and  _294
REMARK  131  A    between atoms: _293  and  _296
REMARK  132  A    between atoms: _296  and  _297
REMARK  133  A    between atoms: _300  and  _302
REMARK  134  A    between atoms: _302  and  _303
REMARK  135  A    between atoms: _305  and  _307
REMARK  136  A    between atoms: _307  and  _308
REMARK  137  A    between atoms: _307  and  _310
REMARK  138  A    between atoms: _310  and  _311
REMARK  139  A    between atoms: _314  and  _316
REMARK  140  A    between atoms: _316  and  _317
REMARK  141  A    between atoms: _316  and  _319
REMARK  142  A    between atoms: _319  and  _320
REMARK  143  A    between atoms: _323  and  _325
REMARK  144  A    between atoms: _325  and  _326
REMARK  145  A    between atoms: _329  and  _331
REMARK  146  A    between atoms: _331  and  _332
REMARK  147  A    between atoms: _331  and  _334
REMARK  148  A    between atoms: _334  and  _335
REMARK  149  A    between atoms: _335  and  _336
REMARK  150  A    between atoms: _336  and  _337
REMARK  151  A    between atoms: _337  and  _338
REMARK  152  A    between atoms: _342  and  _344
REMARK  153  A    between atoms: _344  and  _345
REMARK  154  A    between atoms: _344  and  _347
REMARK  155  A    between atoms: _347  and  _348
REMARK  156  A    between atoms: _351  and  _353
REMARK  157  A    between atoms: _353  and  _354
REMARK  158  A    between atoms: _353  and  _356
REMARK  159  A    between atoms: _356  and  _357
REMARK  160  A    between atoms: _363  and  _365
REMARK  161  A    between atoms: _365  and  _366
REMARK  162  A    between atoms: _368  and  _370
REMARK  163  A    between atoms: _370  and  _371
REMARK  164  A    between atoms: _370  and  _373
REMARK  165  A    between atoms: _376  and  _378
REMARK  166  A    between atoms: _378  and  _379
REMARK  167  A    between atoms: _381  and  _383
REMARK  168  A    between atoms: _383  and  _384
REMARK  169  A    between atoms: _383  and  _386
REMARK  170  A    between atoms: _386  and  _387
REMARK  171  A    between atoms: _393  and  _395
REMARK  172  A    between atoms: _395  and  _396
REMARK  173  A    between atoms: _395  and  _398
REMARK  174  A    between atoms: _398  and  _399
REMARK  175  A    between atoms: _404  and  _405
REMARK  176  A    between atoms: _407  and  _409
REMARK  177  A    between atoms: _409  and  _410
REMARK  178  A    between atoms: _409  and  _412
REMARK  179  A    between atoms: _412  and  _413
REMARK  180  A    between atoms: _415  and  _417
REMARK  181  A    between atoms: _417  and  _418
REMARK  182  A    between atoms: _417  and  _420
REMARK  183  A    between atoms: _420  and  _421
REMARK  184  A    between atoms: _426  and  _427
REMARK  185  A    between atoms: _429  and  _431
REMARK  186  A    between atoms: _431  and  _432
REMARK  187  A    between atoms: _431  and  _434
REMARK  188  A    between atoms: _437  and  _439
REMARK  189  A    between atoms: _439  and  _440
REMARK  190  A    between atoms: _439  and  _442
REMARK  191  A    between atoms: _442  and  _443
REMARK  192  A    between atoms: _446  and  _448
REMARK  193  A    between atoms: _448  and  _449
REMARK  194  A    between atoms: _448  and  _451
REMARK  195  A    between atoms: _454  and  _456
REMARK  196  A    between atoms: _456  and  _457
REMARK  197  A    between atoms: _456  and  _459
REMARK  198  A    between atoms: _459  and  _460
REMARK  199  A    between atoms: _463  and  _465
REMARK  200  A    between atoms: _465  and  _466
REMARK  201  A    between atoms: _465  and  _468
REMARK  202  A    between atoms: _468  and  _469
REMARK  203  A    between atoms: _472  and  _474
REMARK  204  A    between atoms: _474  and  _475
REMARK  205  A    between atoms: _474  and  _477
REMARK  206  A    between atoms: _477  and  _478
REMARK  207  A    between atoms: _478  and  _479
REMARK  208  A    between atoms: _479  and  _480
REMARK  209  A    between atoms: _480  and  _481
REMARK  210  A    between atoms: _485  and  _487
REMARK  211  A    between atoms: _487  and  _488
REMARK  212  A    between atoms: _487  and  _490
REMARK  213  A    between atoms: _490  and  _491
REMARK  214  A    between atoms: _496  and  _498
REMARK  215  A    between atoms: _498  and  _499
REMARK  216  A    between atoms: _498  and  _501
REMARK  217  A    between atoms: _501  and  _502
REMARK  218  A    between atoms: _512  and  _514
REMARK  219  A    between atoms: _514  and  _515
REMARK  220  A    between atoms: _514  and  _517
REMARK  221  A    between atoms: _517  and  _518
REMARK  222  A    between atoms: _518  and  _519
REMARK  223  A    between atoms: _522  and  _524
REMARK  224  A    between atoms: _524  and  _525
REMARK  225  A    between atoms: _524  and  _527
REMARK  226  A    between atoms: _527  and  _528
REMARK  227  A    between atoms: _530  and  _532
REMARK  228  A    between atoms: _532  and  _533
REMARK  229  A    between atoms: _532  and  _535
REMARK  230  A    between atoms: _535  and  _536
REMARK  231  A    between atoms: _542  and  _544
REMARK  232  A    between atoms: _544  and  _545
REMARK  233  A    between atoms: _544  and  _547
REMARK  234  A    between atoms: _547  and  _548
REMARK  235  A    between atoms: _551  and  _553
REMARK  236  A    between atoms: _553  and  _554
REMARK  237  A    between atoms: _553  and  _556
REMARK  238  A    between atoms: _559  and  _561
REMARK  239  A    between atoms: _561  and  _562
REMARK  240  A    between atoms: _564  and  _566
REMARK  241  A    between atoms: _566  and  _567
REMARK  242  A    between atoms: _566  and  _569
REMARK  243  A    between atoms: _569  and  _570
REMARK  244  A    between atoms: _573  and  _575
REMARK  245  A    between atoms: _575  and  _576
REMARK  246  A    between atoms: _575  and  _578
REMARK  247  A    between atoms: _578  and  _579
REMARK  248  A    between atoms: _579  and  _580
REMARK  249  A    between atoms: _580  and  _581
REMARK  250  A    between atoms: _581  and  _582
REMARK  251  A    between atoms: _586  and  _588
REMARK  252  A    between atoms: _588  and  _589
REMARK  253  A    between atoms: _588  and  _591
REMARK                            x       y       z     vdW  Elec       q    Type
REMARK                         _______ _______ _______ _____ _____    ______ ____
ROOT
ATOM      1  O   HOH     1      11.729 -14.483 -26.562  0.00  0.00    +0.000 OA
ENDROOT
TORSDOF 0
REMARK  Name = ../refined-set-2016/3d0b/3d0b_pocket.pdb
REMARK  253 active torsions:
REMARK  status: ('A' for Active; 'I' for Inactive)
REMARK    1  A    between atoms: _1  and  _3
REMARK    2  A    between atoms: _3  and  _4
REMARK    3  A    between atoms: _3  and  _6
REMARK    4  A    between atoms: _6  and  _7
REMARK    5  A    between atoms: _13  and  _15
REMARK    6  A    between atoms: _15  and  _16
REMARK    7  A    between atoms: _15  and  _18
REMARK    8  A    between atoms: _18  and  _19
REMARK    9  A    between atoms: _19  and  _20
REMARK   10  A    between atoms: _25  and  _27
REMARK   11  A    between atoms: _27  and  _28
REMARK   12  A    between atoms: _27  and  _30
REMARK   13  A    between atoms: _30  and  _31
REMARK   14  A    between atoms: _34  and  _36
REMARK   15  A    between atoms: _36  and  _37
REMARK   16  A    between atoms: _36  and  _39
REMARK   17  A    between atoms: _39  and  _40
REMARK   18  A    between atoms: _40  and  _41
REMARK   19  A    between atoms: _43  and  _45
REMARK   20  A    between atoms: _45  and  _46
REMARK   21  A    between atoms: _45  and  _48
REMARK   22  A    between atoms: _48  and  _49
REMARK   23  A    between atoms: _49  and  _50
REMARK   24  A    between atoms: _53  and  _55
REMARK   25  A    between atoms: _55  and  _56
REMARK   26  A    between atoms: _55  and  _58
REMARK   27  A    between atoms: _58  and  _59
REMARK   28  A    between atoms: _62  and  _64
REMARK   29  A    between atoms: _64  and  _65
REMARK   30  A    between atoms: _64  and  _67
REMARK   31  A    between atoms: _67  and  _68
REMARK   32  A    between atoms: _71  and  _73
REMARK   33  A    between atoms: _73  and  _74
REMARK   34  A    between atoms: _73  and  _76
REMARK   35  A    between atoms: _76  and  _77
REMARK   36  A    between atoms: _79  and  _81
REMARK   37  A    between atoms: _81  and  _82
REMARK   38  A    between atoms: _81  and  _84
REMARK   39  A    between atoms: _84  and  _85
REMARK   40  A    between atoms: _90  and  _92
REMARK   41  A    between atoms: _92  and  _93
REMARK   42  A    between atoms: _92  and  _95
REMARK   43  A    between atoms: _95  and  _96
REMARK   44  A    between atoms: _98  and  _100
REMARK   45  A    between atoms: _100  and  _101
REMARK   46  A    between atoms: _100  and  _103
REMARK   47  A    between atoms: _103  and  _104
REMARK   48  A    between atoms: _106  and  _108
REMARK   49  A    between atoms: _108  and  _109
REMARK   50  A    between atoms: _108  and  _111
REMARK   51  A    between atoms: _111  and  _112
REMARK   52  A    between atoms: _115  and  _117
REMARK   53  A    between atoms: _117  and  _118
REMARK   54  A    between atoms: _121  and  _123
REMARK   55  A    between atoms: _123  and  _124
REMARK   56  A    between atoms: _123  and  _126
REMARK   57  A    between atoms: _126  and  _127
REMARK   58  A    between atoms: _130  and  _132
REMARK   59  A    between atoms: _132  and  _133
REMARK   60  A    between atoms: _132  and  _135
REMARK   61  A    between atoms: _135  and  _136
REMARK   62  A    between atoms: _139  and  _141
REMARK   63  A    between atoms: _141  and  _142
REMARK   64  A    between atoms: _141  and  _144
REMARK   65  A    between atoms: _144  and  _145
REMARK   66  A    between atoms: _145  and  _146
REMARK   67  A    between atoms: _146  and  _147
REMARK   68  A    between atoms: _147  and  _148
REMARK   69  A    between atoms: _152  and  _154
REMARK   70  A    between atoms: _154  and  _155
REMARK   71  A    between atoms: _154  and  _157
REMARK   72  A    between atoms: _157  and  _158
REMARK   73  A    between atoms: _161  and  _163
REMARK   74  A    between atoms: _163  and  _164
REMARK   75  A    between atoms: _163  and  _166
REMARK   76  A    between atoms: _166  and  _167
REMARK   77  A    between atoms: _170  and  _172
REMARK   78  A    between atoms: _172  and  _173
REMARK   79  A    between atoms: _172  and  _175
REMARK   80  A    between atoms: _175  and  _176
REMARK   81  A    between atoms: _179  and  _181
REMARK   82  A    between atoms: _181  and  _182
REMARK   83  A    between atoms: _181  and  _184
REMARK   84  A    between atoms: _187  and  _189
REMARK   85  A    between atoms: _189  and  _190
REMARK   86  A    between atoms: _189  and  _192
REMARK   87  A    between atoms: _192  and  _193
REMARK   88  A    between atoms: _196  and  _198
REMARK   89  A    between atoms: _198  and  _199
REMARK   90  A    between atoms: _198  and  _201
REMARK   91  A    between atoms: _201  and  _202
REMARK   92  A    between atoms: _205  and  _207
REMARK   93  A    between atoms: _207  and  _208
REMARK   94  A    between atoms: _210  and  _212
REMARK   95  A    between atoms: _212  and  _213
REMARK   96  A    between atoms: _212  and  _215
REMARK   97  A    between atoms: _215  and  _216
REMARK   98  A    between atoms: _219  and  _221
REMARK   99  A    between atoms: _221  and  _222
REMARK  100  A    between atoms: _224  and  _226
REMARK  101  A    between atoms: _226  and  _227
REMARK  102  A    between atoms: _226  and  _229
REMARK  103  A    between atoms: _229  and  _230
REMARK  104  A    between atoms: _230  and  _231
REMARK  105  A    between atoms: _233  and  _235
REMARK  106  A    between atoms: _235  and  _236
REMARK  107  A    between atoms: _235  and  _238
REMARK  108  A    between atoms: _238  and  _239
REMARK  109  A    between atoms: _242  and  _244
REMARK  110  A    between atoms: _244  and  _245
REMARK  111  A    between atoms: _244  and  _247
REMARK  112  A    between atoms: _247  and  _248
REMARK  113  A    between atoms: _251  and  _253
REMARK  114  A    between atoms: _253  and  _254
REMARK  115  A    between atoms: _253  and  _256
REMARK  116  A    between atoms: _256  and  _257
REMARK  117  A    between atoms: _260  and  _262
REMARK  118  A    between atoms: _262  and  _263
REMARK  119  A    between atoms: _262  and  _265
REMARK  120  A    between atoms: _265  and  _266
REMARK  121  A    between atoms: _269  and  _271
REMARK  122  A    between atoms: _271  and  _272
REMARK  123  A    between atoms: _271  and  _274
REMARK  124  A    between atoms: _274  and  _275
REMARK  125  A    between atoms: _280  and  _282
REMARK  126  A    between atoms: _282  and  _283
REMARK  127  A    between atoms: _282  and  _285
REMARK  128  A    between atoms: _285  and  _286
REMARK  129  A    between atoms: _291  and  _293
REMARK  130  A    between atoms: _293  and  _294
REMARK  131  A    between atoms: _293  and  _296
REMARK  132  A    between atoms: _296  and  _297
REMARK  133  A    between atoms: _300  and  _302
REMARK  134  A    between atoms: _302  and  _303
REMARK  135  A    between atoms: _305  and  _307
REMARK  136  A    between atoms: _307  and  _308
REMARK  137  A    between atoms: _307  and  _310
REMARK  138  A    between atoms: _310  and  _311
REMARK  139  A    between atoms: _314  and  _316
REMARK  140  A    between atoms: _316  and  _317
REMARK  141  A    between atoms: _316  and  _319
REMARK  142  A    between atoms: _319  and  _320
REMARK  143  A    between atoms: _323  and  _325
REMARK  144  A    between atoms: _325  and  _326
REMARK  145  A    between atoms: _329  and  _331
REMARK  146  A    between atoms: _331  and  _332
REMARK  147  A    between atoms: _331  and  _334
REMARK  148  A    between atoms: _334  and  _335
REMARK  149  A    between atoms: _335  and  _336
REMARK  150  A    between atoms: _336  and  _337
REMARK  151  A    between atoms: _337  and  _338
REMARK  152  A    between atoms: _342  and  _344
REMARK  153  A    between atoms: _344  and  _345
REMARK  154  A    between atoms: _344  and  _347
REMARK  155  A    between atoms: _347  and  _348
REMARK  156  A    between atoms: _351  and  _353
REMARK  157  A    between atoms: _353  and  _354
REMARK  158  A    between atoms: _353  and  _356
REMARK  159  A    between atoms: _356  and  _357
REMARK  160  A    between atoms: _363  and  _365
REMARK  161  A    between atoms: _365  and  _366
REMARK  162  A    between atoms: _368  and  _370
REMARK  163  A    between atoms: _370  and  _371
REMARK  164  A    between atoms: _370  and  _373
REMARK  165  A    between atoms: _376  and  _378
REMARK  166  A    between atoms: _378  and  _379
REMARK  167  A    between atoms: _381  and  _383
REMARK  168  A    between atoms: _383  and  _384
REMARK  169  A    between atoms: _383  and  _386
REMARK  170  A    between atoms: _386  and  _387
REMARK  171  A    between atoms: _393  and  _395
REMARK  172  A    between atoms: _395  and  _396
REMARK  173  A    between atoms: _395  and  _398
REMARK  174  A    between atoms: _398  and  _399
REMARK  175  A    between atoms: _404  and  _405
REMARK  176  A    between atoms: _407  and  _409
REMARK  177  A    between atoms: _409  and  _410
REMARK  178  A    between atoms: _409  and  _412
REMARK  179  A    between atoms: _412  and  _413
REMARK  180  A    between atoms: _415  and  _417
REMARK  181  A    between atoms: _417  and  _418
REMARK  182  A    between atoms: _417  and  _420
REMARK  183  A    between atoms: _420  and  _421
REMARK  184  A    between atoms: _426  and  _427
REMARK  185  A    between atoms: _429  and  _431
REMARK  186  A    between atoms: _431  and  _432
REMARK  187  A    between atoms: _431  and  _434
REMARK  188  A    between atoms: _437  and  _439
REMARK  189  A    between atoms: _439  and  _440
REMARK  190  A    between atoms: _439  and  _442
REMARK  191  A    between atoms: _442  and  _443
REMARK  192  A    between atoms: _446  and  _448
REMARK  193  A    between atoms: _448  and  _449
REMARK  194  A    between atoms: _448  and  _451
REMARK  195  A    between atoms: _454  and  _456
REMARK  196  A    between atoms: _456  and  _457
REMARK  197  A    between atoms: _456  and  _459
REMARK  198  A    between atoms: _459  and  _460
REMARK  199  A    between atoms: _463  and  _465
REMARK  200  A    between atoms: _465  and  _466
REMARK  201  A    between atoms: _465  and  _468
REMARK  202  A    between atoms: _468  and  _469
REMARK  203  A    between atoms: _472  and  _474
REMARK  204  A    between atoms: _474  and  _475
REMARK  205  A    between atoms: _474  and  _477
REMARK  206  A    between atoms: _477  and  _478
REMARK  207  A    between atoms: _478  and  _479
REMARK  208  A    between atoms: _479  and  _480
REMARK  209  A    between atoms: _480  and  _481
REMARK  210  A    between atoms: _485  and  _487
REMARK  211  A    between atoms: _487  and  _488
REMARK  212  A    between atoms: _487  and  _490
REMARK  213  A    between atoms: _490  and  _491
REMARK  214  A    between atoms: _496  and  _498
REMARK  215  A    between atoms: _498  and  _499
REMARK  216  A    between atoms: _498  and  _501
REMARK  217  A    between atoms: _501  and  _502
REMARK  218  A    between atoms: _512  and  _514
REMARK  219  A    between atoms: _514  and  _515
REMARK  220  A    between atoms: _514  and  _517
REMARK  221  A    between atoms: _517  and  _518
REMARK  222  A    between atoms: _518  and  _519
REMARK  223  A    between atoms: _522  and  _524
REMARK  224  A    between atoms: _524  and  _525
REMARK  225  A    between atoms: _524  and  _527
REMARK  226  A    between atoms: _527  and  _528
REMARK  227  A    between atoms: _530  and  _532
REMARK  228  A    between atoms: _532  and  _533
REMARK  229  A    between atoms: _532  and  _535
REMARK  230  A    between atoms: _535  and  _536
REMARK  231  A    between atoms: _542  and  _544
REMARK  232  A    between atoms: _544  and  _545
REMARK  233  A    between atoms: _544  and  _547
REMARK  234  A    between atoms: _547  and  _548
REMARK  235  A    between atoms: _551  and  _553
REMARK  236  A    between atoms: _553  and  _554
REMARK  237  A    between atoms: _553  and  _556
REMARK  238  A    between atoms: _559  and  _561
REMARK  239  A    between atoms: _561  and  _562
REMARK  240  A    between atoms: _564  and  _566
REMARK  241  A    between atoms: _566  and  _567
REMARK  242  A    between atoms: _566  and  _569
REMARK  243  A    between atoms: _569  and  _570
REMARK  244  A    between atoms: _573  and  _575
REMARK  245  A    between atoms: _575  and  _576
REMARK  246  A    between atoms: _575  and  _578
REMARK  247  A    between atoms: _578  and  _579
REMARK  248  A    between atoms: _579  and  _580
REMARK  249  A    between atoms: _580  and  _581
REMARK  250  A    between atoms: _581  and  _582
REMARK  251  A    between atoms: _586  and  _588
REMARK  252  A    between atoms: _588  and  _589
REMARK  253  A    between atoms: _588  and  _591
REMARK                            x       y       z     vdW  Elec       q    Type
REMARK                         _______ _______ _______ _____ _____    ______ ____
ROOT
ATOM      1  O   HOH     1      -1.833  -1.842 -25.419  0.00  0.00    +0.000 OA
ENDROOT
TORSDOF 0
REMARK  Name = ../refined-set-2016/3d0b/3d0b_pocket.pdb
REMARK  253 active torsions:
REMARK  status: ('A' for Active; 'I' for Inactive)
REMARK    1  A    between atoms: _1  and  _3
REMARK    2  A    between atoms: _3  and  _4
REMARK    3  A    between atoms: _3  and  _6
REMARK    4  A    between atoms: _6  and  _7
REMARK    5  A    between atoms: _13  and  _15
REMARK    6  A    between atoms: _15  and  _16
REMARK    7  A    between atoms: _15  and  _18
REMARK    8  A    between atoms: _18  and  _19
REMARK    9  A    between atoms: _19  and  _20
REMARK   10  A    between atoms: _25  and  _27
REMARK   11  A    between atoms: _27  and  _28
REMARK   12  A    between atoms: _27  and  _30
REMARK   13  A    between atoms: _30  and  _31
REMARK   14  A    between atoms: _34  and  _36
REMARK   15  A    between atoms: _36  and  _37
REMARK   16  A    between atoms: _36  and  _39
REMARK   17  A    between atoms: _39  and  _40
REMARK   18  A    between atoms: _40  and  _41
REMARK   19  A    between atoms: _43  and  _45
REMARK   20  A    between atoms: _45  and  _46
REMARK   21  A    between atoms: _45  and  _48
REMARK   22  A    between atoms: _48  and  _49
REMARK   23  A    between atoms: _49  and  _50
REMARK   24  A    between atoms: _53  and  _55
REMARK   25  A    between atoms: _55  and  _56
REMARK   26  A    between atoms: _55  and  _58
REMARK   27  A    between atoms: _58  and  _59
REMARK   28  A    between atoms: _62  and  _64
REMARK   29  A    between atoms: _64  and  _65
REMARK   30  A    between atoms: _64  and  _67
REMARK   31  A    between atoms: _67  and  _68
REMARK   32  A    between atoms: _71  and  _73
REMARK   33  A    between atoms: _73  and  _74
REMARK   34  A    between atoms: _73  and  _76
REMARK   35  A    between atoms: _76  and  _77
REMARK   36  A    between atoms: _79  and  _81
REMARK   37  A    between atoms: _81  and  _82
REMARK   38  A    between atoms: _81  and  _84
REMARK   39  A    between atoms: _84  and  _85
REMARK   40  A    between atoms: _90  and  _92
REMARK   41  A    between atoms: _92  and  _93
REMARK   42  A    between atoms: _92  and  _95
REMARK   43  A    between atoms: _95  and  _96
REMARK   44  A    between atoms: _98  and  _100
REMARK   45  A    between atoms: _100  and  _101
REMARK   46  A    between atoms: _100  and  _103
REMARK   47  A    between atoms: _103  and  _104
REMARK   48  A    between atoms: _106  and  _108
REMARK   49  A    between atoms: _108  and  _109
REMARK   50  A    between atoms: _108  and  _111
REMARK   51  A    between atoms: _111  and  _112
REMARK   52  A    between atoms: _115  and  _117
REMARK   53  A    between atoms: _117  and  _118
REMARK   54  A    between atoms: _121  and  _123
REMARK   55  A    between atoms: _123  and  _124
REMARK   56  A    between atoms: _123  and  _126
REMARK   57  A    between atoms: _126  and  _127
REMARK   58  A    between atoms: _130  and  _132
REMARK   59  A    between atoms: _132  and  _133
REMARK   60  A    between atoms: _132  and  _135
REMARK   61  A    between atoms: _135  and  _136
REMARK   62  A    between atoms: _139  and  _141
REMARK   63  A    between atoms: _141  and  _142
REMARK   64  A    between atoms: _141  and  _144
REMARK   65  A    between atoms: _144  and  _145
REMARK   66  A    between atoms: _145  and  _146
REMARK   67  A    between atoms: _146  and  _147
REMARK   68  A    between atoms: _147  and  _148
REMARK   69  A    between atoms: _152  and  _154
REMARK   70  A    between atoms: _154  and  _155
REMARK   71  A    between atoms: _154  and  _157
REMARK   72  A    between atoms: _157  and  _158
REMARK   73  A    between atoms: _161  and  _163
REMARK   74  A    between atoms: _163  and  _164
REMARK   75  A    between atoms: _163  and  _166
REMARK   76  A    between atoms: _166  and  _167
REMARK   77  A    between atoms: _170  and  _172
REMARK   78  A    between atoms: _172  and  _173
REMARK   79  A    between atoms: _172  and  _175
REMARK   80  A    between atoms: _175  and  _176
REMARK   81  A    between atoms: _179  and  _181
REMARK   82  A    between atoms: _181  and  _182
REMARK   83  A    between atoms: _181  and  _184
REMARK   84  A    between atoms: _187  and  _189
REMARK   85  A    between atoms: _189  and  _190
REMARK   86  A    between atoms: _189  and  _192
REMARK   87  A    between atoms: _192  and  _193
REMARK   88  A    between atoms: _196  and  _198
REMARK   89  A    between atoms: _198  and  _199
REMARK   90  A    between atoms: _198  and  _201
REMARK   91  A    between atoms: _201  and  _202
REMARK   92  A    between atoms: _205  and  _207
REMARK   93  A    between atoms: _207  and  _208
REMARK   94  A    between atoms: _210  and  _212
REMARK   95  A    between atoms: _212  and  _213
REMARK   96  A    between atoms: _212  and  _215
REMARK   97  A    between atoms: _215  and  _216
REMARK   98  A    between atoms: _219  and  _221
REMARK   99  A    between atoms: _221  and  _222
REMARK  100  A    between atoms: _224  and  _226
REMARK  101  A    between atoms: _226  and  _227
REMARK  102  A    between atoms: _226  and  _229
REMARK  103  A    between atoms: _229  and  _230
REMARK  104  A    between atoms: _230  and  _231
REMARK  105  A    between atoms: _233  and  _235
REMARK  106  A    between atoms: _235  and  _236
REMARK  107  A    between atoms: _235  and  _238
REMARK  108  A    between atoms: _238  and  _239
REMARK  109  A    between atoms: _242  and  _244
REMARK  110  A    between atoms: _244  and  _245
REMARK  111  A    between atoms: _244  and  _247
REMARK  112  A    between atoms: _247  and  _248
REMARK  113  A    between atoms: _251  and  _253
REMARK  114  A    between atoms: _253  and  _254
REMARK  115  A    between atoms: _253  and  _256
REMARK  116  A    between atoms: _256  and  _257
REMARK  117  A    between atoms: _260  and  _262
REMARK  118  A    between atoms: _262  and  _263
REMARK  119  A    between atoms: _262  and  _265
REMARK  120  A    between atoms: _265  and  _266
REMARK  121  A    between atoms: _269  and  _271
REMARK  122  A    between atoms: _271  and  _272
REMARK  123  A    between atoms: _271  and  _274
REMARK  124  A    between atoms: _274  and  _275
REMARK  125  A    between atoms: _280  and  _282
REMARK  126  A    between atoms: _282  and  _283
REMARK  127  A    between atoms: _282  and  _285
REMARK  128  A    between atoms: _285  and  _286
REMARK  129  A    between atoms: _291  and  _293
REMARK  130  A    between atoms: _293  and  _294
REMARK  131  A    between atoms: _293  and  _296
REMARK  132  A    between atoms: _296  and  _297
REMARK  133  A    between atoms: _300  and  _302
REMARK  134  A    between atoms: _302  and  _303
REMARK  135  A    between atoms: _305  and  _307
REMARK  136  A    between atoms: _307  and  _308
REMARK  137  A    between atoms: _307  and  _310
REMARK  138  A    between atoms: _310  and  _311
REMARK  139  A    between atoms: _314  and  _316
REMARK  140  A    between atoms: _316  and  _317
REMARK  141  A    between atoms: _316  and  _319
REMARK  142  A    between atoms: _319  and  _320
REMARK  143  A    between atoms: _323  and  _325
REMARK  144  A    between atoms: _325  and  _326
REMARK  145  A    between atoms: _329  and  _331
REMARK  146  A    between atoms: _331  and  _332
REMARK  147  A    between atoms: _331  and  _334
REMARK  148  A    between atoms: _334  and  _335
REMARK  149  A    between atoms: _335  and  _336
REMARK  150  A    between atoms: _336  and  _337
REMARK  151  A    between atoms: _337  and  _338
REMARK  152  A    between atoms: _342  and  _344
REMARK  153  A    between atoms: _344  and  _345
REMARK  154  A    between atoms: _344  and  _347
REMARK  155  A    between atoms: _347  and  _348
REMARK  156  A    between atoms: _351  and  _353
REMARK  157  A    between atoms: _353  and  _354
REMARK  158  A    between atoms: _353  and  _356
REMARK  159  A    between atoms: _356  and  _357
REMARK  160  A    between atoms: _363  and  _365
REMARK  161  A    between atoms: _365  and  _366
REMARK  162  A    between atoms: _368  and  _370
REMARK  163  A    between atoms: _370  and  _371
REMARK  164  A    between atoms: _370  and  _373
REMARK  165  A    between atoms: _376  and  _378
REMARK  166  A    between atoms: _378  and  _379
REMARK  167  A    between atoms: _381  and  _383
REMARK  168  A    between atoms: _383  and  _384
REMARK  169  A    between atoms: _383  and  _386
REMARK  170  A    between atoms: _386  and  _387
REMARK  171  A    between atoms: _393  and  _395
REMARK  172  A    between atoms: _395  and  _396
REMARK  173  A    between atoms: _395  and  _398
REMARK  174  A    between atoms: _398  and  _399
REMARK  175  A    between atoms: _404  and  _405
REMARK  176  A    between atoms: _407  and  _409
REMARK  177  A    between atoms: _409  and  _410
REMARK  178  A    between atoms: _409  and  _412
REMARK  179  A    between atoms: _412  and  _413
REMARK  180  A    between atoms: _415  and  _417
REMARK  181  A    between atoms: _417  and  _418
REMARK  182  A    between atoms: _417  and  _420
REMARK  183  A    between atoms: _420  and  _421
REMARK  184  A    between atoms: _426  and  _427
REMARK  185  A    between atoms: _429  and  _431
REMARK  186  A    between atoms: _431  and  _432
REMARK  187  A    between atoms: _431  and  _434
REMARK  188  A    between atoms: _437  and  _439
REMARK  189  A    between atoms: _439  and  _440
REMARK  190  A    between atoms: _439  and  _442
REMARK  191  A    between atoms: _442  and  _443
REMARK  192  A    between atoms: _446  and  _448
REMARK  193  A    between atoms: _448  and  _449
REMARK  194  A    between atoms: _448  and  _451
REMARK  195  A    between atoms: _454  and  _456
REMARK  196  A    between atoms: _456  and  _457
REMARK  197  A    between atoms: _456  and  _459
REMARK  198  A    between atoms: _459  and  _460
REMARK  199  A    between atoms: _463  and  _465
REMARK  200  A    between atoms: _465  and  _466
REMARK  201  A    between atoms: _465  and  _468
REMARK  202  A    between atoms: _468  and  _469
REMARK  203  A    between atoms: _472  and  _474
REMARK  204  A    between atoms: _474  and  _475
REMARK  205  A    between atoms: _474  and  _477
REMARK  206  A    between atoms: _477  and  _478
REMARK  207  A    between atoms: _478  and  _479
REMARK  208  A    between atoms: _479  and  _480
REMARK  209  A    between atoms: _480  and  _481
REMARK  210  A    between atoms: _485  and  _487
REMARK  211  A    between atoms: _487  and  _488
REMARK  212  A    between atoms: _487  and  _490
REMARK  213  A    between atoms: _490  and  _491
REMARK  214  A    between atoms: _496  and  _498
REMARK  215  A    between atoms: _498  and  _499
REMARK  216  A    between atoms: _498  and  _501
REMARK  217  A    between atoms: _501  and  _502
REMARK  218  A    between atoms: _512  and  _514
REMARK  219  A    between atoms: _514  and  _515
REMARK  220  A    between atoms: _514  and  _517
REMARK  221  A    between atoms: _517  and  _518
REMARK  222  A    between atoms: _518  and  _519
REMARK  223  A    between atoms: _522  and  _524
REMARK  224  A    between atoms: _524  and  _525
REMARK  225  A    between atoms: _524  and  _527
REMARK  226  A    between atoms: _527  and  _528
REMARK  227  A    between atoms: _530  and  _532
REMARK  228  A    between atoms: _532  and  _533
REMARK  229  A    between atoms: _532  and  _535
REMARK  230  A    between atoms: _535  and  _536
REMARK  231  A    between atoms: _542  and  _544
REMARK  232  A    between atoms: _544  and  _545
REMARK  233  A    between atoms: _544  and  _547
REMARK  234  A    between atoms: _547  and  _548
REMARK  235  A    between atoms: _551  and  _553
REMARK  236  A    between atoms: _553  and  _554
REMARK  237  A    between atoms: _553  and  _556
REMARK  238  A    between atoms: _559  and  _561
REMARK  239  A    between atoms: _561  and  _562
REMARK  240  A    between atoms: _564  and  _566
REMARK  241  A    between atoms: _566  and  _567
REMARK  242  A    between atoms: _566  and  _569
REMARK  243  A    between atoms: _569  and  _570
REMARK  244  A    between atoms: _573  and  _575
REMARK  245  A    between atoms: _575  and  _576
REMARK  246  A    between atoms: _575  and  _578
REMARK  247  A    between atoms: _578  and  _579
REMARK  248  A    between atoms: _579  and  _580
REMARK  249  A    between atoms: _580  and  _581
REMARK  250  A    between atoms: _581  and  _582
REMARK  251  A    between atoms: _586  and  _588
REMARK  252  A    between atoms: _588  and  _589
REMARK  253  A    between atoms: _588  and  _591
REMARK                            x       y       z     vdW  Elec       q    Type
REMARK                         _______ _______ _______ _____ _____    ______ ____
ROOT
ATOM      1  O   HOH     1      -2.451 -13.150 -21.297  0.00  0.00    +0.000 OA
ENDROOT
TORSDOF 0
REMARK  Name = ../refined-set-2016/3d0b/3d0b_pocket.pdb
REMARK  253 active torsions:
REMARK  status: ('A' for Active; 'I' for Inactive)
REMARK    1  A    between atoms: _1  and  _3
REMARK    2  A    between atoms: _3  and  _4
REMARK    3  A    between atoms: _3  and  _6
REMARK    4  A    between atoms: _6  and  _7
REMARK    5  A    between atoms: _13  and  _15
REMARK    6  A    between atoms: _15  and  _16
REMARK    7  A    between atoms: _15  and  _18
REMARK    8  A    between atoms: _18  and  _19
REMARK    9  A    between atoms: _19  and  _20
REMARK   10  A    between atoms: _25  and  _27
REMARK   11  A    between atoms: _27  and  _28
REMARK   12  A    between atoms: _27  and  _30
REMARK   13  A    between atoms: _30  and  _31
REMARK   14  A    between atoms: _34  and  _36
REMARK   15  A    between atoms: _36  and  _37
REMARK   16  A    between atoms: _36  and  _39
REMARK   17  A    between atoms: _39  and  _40
REMARK   18  A    between atoms: _40  and  _41
REMARK   19  A    between atoms: _43  and  _45
REMARK   20  A    between atoms: _45  and  _46
REMARK   21  A    between atoms: _45  and  _48
REMARK   22  A    between atoms: _48  and  _49
REMARK   23  A    between atoms: _49  and  _50
REMARK   24  A    between atoms: _53  and  _55
REMARK   25  A    between atoms: _55  and  _56
REMARK   26  A    between atoms: _55  and  _58
REMARK   27  A    between atoms: _58  and  _59
REMARK   28  A    between atoms: _62  and  _64
REMARK   29  A    between atoms: _64  and  _65
REMARK   30  A    between atoms: _64  and  _67
REMARK   31  A    between atoms: _67  and  _68
REMARK   32  A    between atoms: _71  and  _73
REMARK   33  A    between atoms: _73  and  _74
REMARK   34  A    between atoms: _73  and  _76
REMARK   35  A    between atoms: _76  and  _77
REMARK   36  A    between atoms: _79  and  _81
REMARK   37  A    between atoms: _81  and  _82
REMARK   38  A    between atoms: _81  and  _84
REMARK   39  A    between atoms: _84  and  _85
REMARK   40  A    between atoms: _90  and  _92
REMARK   41  A    between atoms: _92  and  _93
REMARK   42  A    between atoms: _92  and  _95
REMARK   43  A    between atoms: _95  and  _96
REMARK   44  A    between atoms: _98  and  _100
REMARK   45  A    between atoms: _100  and  _101
REMARK   46  A    between atoms: _100  and  _103
REMARK   47  A    between atoms: _103  and  _104
REMARK   48  A    between atoms: _106  and  _108
REMARK   49  A    between atoms: _108  and  _109
REMARK   50  A    between atoms: _108  and  _111
REMARK   51  A    between atoms: _111  and  _112
REMARK   52  A    between atoms: _115  and  _117
REMARK   53  A    between atoms: _117  and  _118
REMARK   54  A    between atoms: _121  and  _123
REMARK   55  A    between atoms: _123  and  _124
REMARK   56  A    between atoms: _123  and  _126
REMARK   57  A    between atoms: _126  and  _127
REMARK   58  A    between atoms: _130  and  _132
REMARK   59  A    between atoms: _132  and  _133
REMARK   60  A    between atoms: _132  and  _135
REMARK   61  A    between atoms: _135  and  _136
REMARK   62  A    between atoms: _139  and  _141
REMARK   63  A    between atoms: _141  and  _142
REMARK   64  A    between atoms: _141  and  _144
REMARK   65  A    between atoms: _144  and  _145
REMARK   66  A    between atoms: _145  and  _146
REMARK   67  A    between atoms: _146  and  _147
REMARK   68  A    between atoms: _147  and  _148
REMARK   69  A    between atoms: _152  and  _154
REMARK   70  A    between atoms: _154  and  _155
REMARK   71  A    between atoms: _154  and  _157
REMARK   72  A    between atoms: _157  and  _158
REMARK   73  A    between atoms: _161  and  _163
REMARK   74  A    between atoms: _163  and  _164
REMARK   75  A    between atoms: _163  and  _166
REMARK   76  A    between atoms: _166  and  _167
REMARK   77  A    between atoms: _170  and  _172
REMARK   78  A    between atoms: _172  and  _173
REMARK   79  A    between atoms: _172  and  _175
REMARK   80  A    between atoms: _175  and  _176
REMARK   81  A    between atoms: _179  and  _181
REMARK   82  A    between atoms: _181  and  _182
REMARK   83  A    between atoms: _181  and  _184
REMARK   84  A    between atoms: _187  and  _189
REMARK   85  A    between atoms: _189  and  _190
REMARK   86  A    between atoms: _189  and  _192
REMARK   87  A    between atoms: _192  and  _193
REMARK   88  A    between atoms: _196  and  _198
REMARK   89  A    between atoms: _198  and  _199
REMARK   90  A    between atoms: _198  and  _201
REMARK   91  A    between atoms: _201  and  _202
REMARK   92  A    between atoms: _205  and  _207
REMARK   93  A    between atoms: _207  and  _208
REMARK   94  A    between atoms: _210  and  _212
REMARK   95  A    between atoms: _212  and  _213
REMARK   96  A    between atoms: _212  and  _215
REMARK   97  A    between atoms: _215  and  _216
REMARK   98  A    between atoms: _219  and  _221
REMARK   99  A    between atoms: _221  and  _222
REMARK  100  A    between atoms: _224  and  _226
REMARK  101  A    between atoms: _226  and  _227
REMARK  102  A    between atoms: _226  and  _229
REMARK  103  A    between atoms: _229  and  _230
REMARK  104  A    between atoms: _230  and  _231
REMARK  105  A    between atoms: _233  and  _235
REMARK  106  A    between atoms: _235  and  _236
REMARK  107  A    between atoms: _235  and  _238
REMARK  108  A    between atoms: _238  and  _239
REMARK  109  A    between atoms: _242  and  _244
REMARK  110  A    between atoms: _244  and  _245
REMARK  111  A    between atoms: _244  and  _247
REMARK  112  A    between atoms: _247  and  _248
REMARK  113  A    between atoms: _251  and  _253
REMARK  114  A    between atoms: _253  and  _254
REMARK  115  A    between atoms: _253  and  _256
REMARK  116  A    between atoms: _256  and  _257
REMARK  117  A    between atoms: _260  and  _262
REMARK  118  A    between atoms: _262  and  _263
REMARK  119  A    between atoms: _262  and  _265
REMARK  120  A    between atoms: _265  and  _266
REMARK  121  A    between atoms: _269  and  _271
REMARK  122  A    between atoms: _271  and  _272
REMARK  123  A    between atoms: _271  and  _274
REMARK  124  A    between atoms: _274  and  _275
REMARK  125  A    between atoms: _280  and  _282
REMARK  126  A    between atoms: _282  and  _283
REMARK  127  A    between atoms: _282  and  _285
REMARK  128  A    between atoms: _285  and  _286
REMARK  129  A    between atoms: _291  and  _293
REMARK  130  A    between atoms: _293  and  _294
REMARK  131  A    between atoms: _293  and  _296
REMARK  132  A    between atoms: _296  and  _297
REMARK  133  A    between atoms: _300  and  _302
REMARK  134  A    between atoms: _302  and  _303
REMARK  135  A    between atoms: _305  and  _307
REMARK  136  A    between atoms: _307  and  _308
REMARK  137  A    between atoms: _307  and  _310
REMARK  138  A    between atoms: _310  and  _311
REMARK  139  A    between atoms: _314  and  _316
REMARK  140  A    between atoms: _316  and  _317
REMARK  141  A    between atoms: _316  and  _319
REMARK  142  A    between atoms: _319  and  _320
REMARK  143  A    between atoms: _323  and  _325
REMARK  144  A    between atoms: _325  and  _326
REMARK  145  A    between atoms: _329  and  _331
REMARK  146  A    between atoms: _331  and  _332
REMARK  147  A    between atoms: _331  and  _334
REMARK  148  A    between atoms: _334  and  _335
REMARK  149  A    between atoms: _335  and  _336
REMARK  150  A    between atoms: _336  and  _337
REMARK  151  A    between atoms: _337  and  _338
REMARK  152  A    between atoms: _342  and  _344
REMARK  153  A    between atoms: _344  and  _345
REMARK  154  A    between atoms: _344  and  _347
REMARK  155  A    between atoms: _347  and  _348
REMARK  156  A    between atoms: _351  and  _353
REMARK  157  A    between atoms: _353  and  _354
REMARK  158  A    between atoms: _353  and  _356
REMARK  159  A    between atoms: _356  and  _357
REMARK  160  A    between atoms: _363  and  _365
REMARK  161  A    between atoms: _365  and  _366
REMARK  162  A    between atoms: _368  and  _370
REMARK  163  A    between atoms: _370  and  _371
REMARK  164  A    between atoms: _370  and  _373
REMARK  165  A    between atoms: _376  and  _378
REMARK  166  A    between atoms: _378  and  _379
REMARK  167  A    between atoms: _381  and  _383
REMARK  168  A    between atoms: _383  and  _384
REMARK  169  A    between atoms: _383  and  _386
REMARK  170  A    between atoms: _386  and  _387
REMARK  171  A    between atoms: _393  and  _395
REMARK  172  A    between atoms: _395  and  _396
REMARK  173  A    between atoms: _395  and  _398
REMARK  174  A    between atoms: _398  and  _399
REMARK  175  A    between atoms: _404  and  _405
REMARK  176  A    between atoms: _407  and  _409
REMARK  177  A    between atoms: _409  and  _410
REMARK  178  A    between atoms: _409  and  _412
REMARK  179  A    between atoms: _412  and  _413
REMARK  180  A    between atoms: _415  and  _417
REMARK  181  A    between atoms: _417  and  _418
REMARK  182  A    between atoms: _417  and  _420
REMARK  183  A    between atoms: _420  and  _421
REMARK  184  A    between atoms: _426  and  _427
REMARK  185  A    between atoms: _429  and  _431
REMARK  186  A    between atoms: _431  and  _432
REMARK  187  A    between atoms: _431  and  _434
REMARK  188  A    between atoms: _437  and  _439
REMARK  189  A    between atoms: _439  and  _440
REMARK  190  A    between atoms: _439  and  _442
REMARK  191  A    between atoms: _442  and  _443
REMARK  192  A    between atoms: _446  and  _448
REMARK  193  A    between atoms: _448  and  _449
REMARK  194  A    between atoms: _448  and  _451
REMARK  195  A    between atoms: _454  and  _456
REMARK  196  A    between atoms: _456  and  _457
REMARK  197  A    between atoms: _456  and  _459
REMARK  198  A    between atoms: _459  and  _460
REMARK  199  A    between atoms: _463  and  _465
REMARK  200  A    between atoms: _465  and  _466
REMARK  201  A    between atoms: _465  and  _468
REMARK  202  A    between atoms: _468  and  _469
REMARK  203  A    between atoms: _472  and  _474
REMARK  204  A    between atoms: _474  and  _475
REMARK  205  A    between atoms: _474  and  _477
REMARK  206  A    between atoms: _477  and  _478
REMARK  207  A    between atoms: _478  and  _479
REMARK  208  A    between atoms: _479  and  _480
REMARK  209  A    between atoms: _480  and  _481
REMARK  210  A    between atoms: _485  and  _487
REMARK  211  A    between atoms: _487  and  _488
REMARK  212  A    between atoms: _487  and  _490
REMARK  213  A    between atoms: _490  and  _491
REMARK  214  A    between atoms: _496  and  _498
REMARK  215  A    between atoms: _498  and  _499
REMARK  216  A    between atoms: _498  and  _501
REMARK  217  A    between atoms: _501  and  _502
REMARK  218  A    between atoms: _512  and  _514
REMARK  219  A    between atoms: _514  and  _515
REMARK  220  A    between atoms: _514  and  _517
REMARK  221  A    between atoms: _517  and  _518
REMARK  222  A    between atoms: _518  and  _519
REMARK  223  A    between atoms: _522  and  _524
REMARK  224  A    between atoms: _524  and  _525
REMARK  225  A    between atoms: _524  and  _527
REMARK  226  A    between atoms: _527  and  _528
REMARK  227  A    between atoms: _530  and  _532
REMARK  228  A    between atoms: _532  and  _533
REMARK  229  A    between atoms: _532  and  _535
REMARK  230  A    between atoms: _535  and  _536
REMARK  231  A    between atoms: _542  and  _544
REMARK  232  A    between atoms: _544  and  _545
REMARK  233  A    between atoms: _544  and  _547
REMARK  234  A    between atoms: _547  and  _548
REMARK  235  A    between atoms: _551  and  _553
REMARK  236  A    between atoms: _553  and  _554
REMARK  237  A    between atoms: _553  and  _556
REMARK  238  A    between atoms: _559  and  _561
REMARK  239  A    between atoms: _561  and  _562
REMARK  240  A    between atoms: _564  and  _566
REMARK  241  A    between atoms: _566  and  _567
REMARK  242  A    between atoms: _566  and  _569
REMARK  243  A    between atoms: _569  and  _570
REMARK  244  A    between atoms: _573  and  _575
REMARK  245  A    between atoms: _575  and  _576
REMARK  246  A    between atoms: _575  and  _578
REMARK  247  A    between atoms: _578  and  _579
REMARK  248  A    between atoms: _579  and  _580
REMARK  249  A    between atoms: _580  and  _581
REMARK  250  A    between atoms: _581  and  _582
REMARK  251  A    between atoms: _586  and  _588
REMARK  252  A    between atoms: _588  and  _589
REMARK  253  A    between atoms: _588  and  _591
REMARK                            x       y       z     vdW  Elec       q    Type
REMARK                         _______ _______ _______ _____ _____    ______ ____
ROOT
ATOM      1  O   HOH     1       4.331  -6.756 -18.061  0.00  0.00    +0.000 OA
ENDROOT
TORSDOF 0
REMARK  Name = ../refined-set-2016/3d0b/3d0b_pocket.pdb
REMARK  253 active torsions:
REMARK  status: ('A' for Active; 'I' for Inactive)
REMARK    1  A    between atoms: _1  and  _3
REMARK    2  A    between atoms: _3  and  _4
REMARK    3  A    between atoms: _3  and  _6
REMARK    4  A    between atoms: _6  and  _7
REMARK    5  A    between atoms: _13  and  _15
REMARK    6  A    between atoms: _15  and  _16
REMARK    7  A    between atoms: _15  and  _18
REMARK    8  A    between atoms: _18  and  _19
REMARK    9  A    between atoms: _19  and  _20
REMARK   10  A    between atoms: _25  and  _27
REMARK   11  A    between atoms: _27  and  _28
REMARK   12  A    between atoms: _27  and  _30
REMARK   13  A    between atoms: _30  and  _31
REMARK   14  A    between atoms: _34  and  _36
REMARK   15  A    between atoms: _36  and  _37
REMARK   16  A    between atoms: _36  and  _39
REMARK   17  A    between atoms: _39  and  _40
REMARK   18  A    between atoms: _40  and  _41
REMARK   19  A    between atoms: _43  and  _45
REMARK   20  A    between atoms: _45  and  _46
REMARK   21  A    between atoms: _45  and  _48
REMARK   22  A    between atoms: _48  and  _49
REMARK   23  A    between atoms: _49  and  _50
REMARK   24  A    between atoms: _53  and  _55
REMARK   25  A    between atoms: _55  and  _56
REMARK   26  A    between atoms: _55  and  _58
REMARK   27  A    between atoms: _58  and  _59
REMARK   28  A    between atoms: _62  and  _64
REMARK   29  A    between atoms: _64  and  _65
REMARK   30  A    between atoms: _64  and  _67
REMARK   31  A    between atoms: _67  and  _68
REMARK   32  A    between atoms: _71  and  _73
REMARK   33  A    between atoms: _73  and  _74
REMARK   34  A    between atoms: _73  and  _76
REMARK   35  A    between atoms: _76  and  _77
REMARK   36  A    between atoms: _79  and  _81
REMARK   37  A    between atoms: _81  and  _82
REMARK   38  A    between atoms: _81  and  _84
REMARK   39  A    between atoms: _84  and  _85
REMARK   40  A    between atoms: _90  and  _92
REMARK   41  A    between atoms: _92  and  _93
REMARK   42  A    between atoms: _92  and  _95
REMARK   43  A    between atoms: _95  and  _96
REMARK   44  A    between atoms: _98  and  _100
REMARK   45  A    between atoms: _100  and  _101
REMARK   46  A    between atoms: _100  and  _103
REMARK   47  A    between atoms: _103  and  _104
REMARK   48  A    between atoms: _106  and  _108
REMARK   49  A    between atoms: _108  and  _109
REMARK   50  A    between atoms: _108  and  _111
REMARK   51  A    between atoms: _111  and  _112
REMARK   52  A    between atoms: _115  and  _117
REMARK   53  A    between atoms: _117  and  _118
REMARK   54  A    between atoms: _121  and  _123
REMARK   55  A    between atoms: _123  and  _124
REMARK   56  A    between atoms: _123  and  _126
REMARK   57  A    between atoms: _126  and  _127
REMARK   58  A    between atoms: _130  and  _132
REMARK   59  A    between atoms: _132  and  _133
REMARK   60  A    between atoms: _132  and  _135
REMARK   61  A    between atoms: _135  and  _136
REMARK   62  A    between atoms: _139  and  _141
REMARK   63  A    between atoms: _141  and  _142
REMARK   64  A    between atoms: _141  and  _144
REMARK   65  A    between atoms: _144  and  _145
REMARK   66  A    between atoms: _145  and  _146
REMARK   67  A    between atoms: _146  and  _147
REMARK   68  A    between atoms: _147  and  _148
REMARK   69  A    between atoms: _152  and  _154
REMARK   70  A    between atoms: _154  and  _155
REMARK   71  A    between atoms: _154  and  _157
REMARK   72  A    between atoms: _157  and  _158
REMARK   73  A    between atoms: _161  and  _163
REMARK   74  A    between atoms: _163  and  _164
REMARK   75  A    between atoms: _163  and  _166
REMARK   76  A    between atoms: _166  and  _167
REMARK   77  A    between atoms: _170  and  _172
REMARK   78  A    between atoms: _172  and  _173
REMARK   79  A    between atoms: _172  and  _175
REMARK   80  A    between atoms: _175  and  _176
REMARK   81  A    between atoms: _179  and  _181
REMARK   82  A    between atoms: _181  and  _182
REMARK   83  A    between atoms: _181  and  _184
REMARK   84  A    between atoms: _187  and  _189
REMARK   85  A    between atoms: _189  and  _190
REMARK   86  A    between atoms: _189  and  _192
REMARK   87  A    between atoms: _192  and  _193
REMARK   88  A    between atoms: _196  and  _198
REMARK   89  A    between atoms: _198  and  _199
REMARK   90  A    between atoms: _198  and  _201
REMARK   91  A    between atoms: _201  and  _202
REMARK   92  A    between atoms: _205  and  _207
REMARK   93  A    between atoms: _207  and  _208
REMARK   94  A    between atoms: _210  and  _212
REMARK   95  A    between atoms: _212  and  _213
REMARK   96  A    between atoms: _212  and  _215
REMARK   97  A    between atoms: _215  and  _216
REMARK   98  A    between atoms: _219  and  _221
REMARK   99  A    between atoms: _221  and  _222
REMARK  100  A    between atoms: _224  and  _226
REMARK  101  A    between atoms: _226  and  _227
REMARK  102  A    between atoms: _226  and  _229
REMARK  103  A    between atoms: _229  and  _230
REMARK  104  A    between atoms: _230  and  _231
REMARK  105  A    between atoms: _233  and  _235
REMARK  106  A    between atoms: _235  and  _236
REMARK  107  A    between atoms: _235  and  _238
REMARK  108  A    between atoms: _238  and  _239
REMARK  109  A    between atoms: _242  and  _244
REMARK  110  A    between atoms: _244  and  _245
REMARK  111  A    between atoms: _244  and  _247
REMARK  112  A    between atoms: _247  and  _248
REMARK  113  A    between atoms: _251  and  _253
REMARK  114  A    between atoms: _253  and  _254
REMARK  115  A    between atoms: _253  and  _256
REMARK  116  A    between atoms: _256  and  _257
REMARK  117  A    between atoms: _260  and  _262
REMARK  118  A    between atoms: _262  and  _263
REMARK  119  A    between atoms: _262  and  _265
REMARK  120  A    between atoms: _265  and  _266
REMARK  121  A    between atoms: _269  and  _271
REMARK  122  A    between atoms: _271  and  _272
REMARK  123  A    between atoms: _271  and  _274
REMARK  124  A    between atoms: _274  and  _275
REMARK  125  A    between atoms: _280  and  _282
REMARK  126  A    between atoms: _282  and  _283
REMARK  127  A    between atoms: _282  and  _285
REMARK  128  A    between atoms: _285  and  _286
REMARK  129  A    between atoms: _291  and  _293
REMARK  130  A    between atoms: _293  and  _294
REMARK  131  A    between atoms: _293  and  _296
REMARK  132  A    between atoms: _296  and  _297
REMARK  133  A    between atoms: _300  and  _302
REMARK  134  A    between atoms: _302  and  _303
REMARK  135  A    between atoms: _305  and  _307
REMARK  136  A    between atoms: _307  and  _308
REMARK  137  A    between atoms: _307  and  _310
REMARK  138  A    between atoms: _310  and  _311
REMARK  139  A    between atoms: _314  and  _316
REMARK  140  A    between atoms: _316  and  _317
REMARK  141  A    between atoms: _316  and  _319
REMARK  142  A    between atoms: _319  and  _320
REMARK  143  A    between atoms: _323  and  _325
REMARK  144  A    between atoms: _325  and  _326
REMARK  145  A    between atoms: _329  and  _331
REMARK  146  A    between atoms: _331  and  _332
REMARK  147  A    between atoms: _331  and  _334
REMARK  148  A    between atoms: _334  and  _335
REMARK  149  A    between atoms: _335  and  _336
REMARK  150  A    between atoms: _336  and  _337
REMARK  151  A    between atoms: _337  and  _338
REMARK  152  A    between atoms: _342  and  _344
REMARK  153  A    between atoms: _344  and  _345
REMARK  154  A    between atoms: _344  and  _347
REMARK  155  A    between atoms: _347  and  _348
REMARK  156  A    between atoms: _351  and  _353
REMARK  157  A    between atoms: _353  and  _354
REMARK  158  A    between atoms: _353  and  _356
REMARK  159  A    between atoms: _356  and  _357
REMARK  160  A    between atoms: _363  and  _365
REMARK  161  A    between atoms: _365  and  _366
REMARK  162  A    between atoms: _368  and  _370
REMARK  163  A    between atoms: _370  and  _371
REMARK  164  A    between atoms: _370  and  _373
REMARK  165  A    between atoms: _376  and  _378
REMARK  166  A    between atoms: _378  and  _379
REMARK  167  A    between atoms: _381  and  _383
REMARK  168  A    between atoms: _383  and  _384
REMARK  169  A    between atoms: _383  and  _386
REMARK  170  A    between atoms: _386  and  _387
REMARK  171  A    between atoms: _393  and  _395
REMARK  172  A    between atoms: _395  and  _396
REMARK  173  A    between atoms: _395  and  _398
REMARK  174  A    between atoms: _398  and  _399
REMARK  175  A    between atoms: _404  and  _405
REMARK  176  A    between atoms: _407  and  _409
REMARK  177  A    between atoms: _409  and  _410
REMARK  178  A    between atoms: _409  and  _412
REMARK  179  A    between atoms: _412  and  _413
REMARK  180  A    between atoms: _415  and  _417
REMARK  181  A    between atoms: _417  and  _418
REMARK  182  A    between atoms: _417  and  _420
REMARK  183  A    between atoms: _420  and  _421
REMARK  184  A    between atoms: _426  and  _427
REMARK  185  A    between atoms: _429  and  _431
REMARK  186  A    between atoms: _431  and  _432
REMARK  187  A    between atoms: _431  and  _434
REMARK  188  A    between atoms: _437  and  _439
REMARK  189  A    between atoms: _439  and  _440
REMARK  190  A    between atoms: _439  and  _442
REMARK  191  A    between atoms: _442  and  _443
REMARK  192  A    between atoms: _446  and  _448
REMARK  193  A    between atoms: _448  and  _449
REMARK  194  A    between atoms: _448  and  _451
REMARK  195  A    between atoms: _454  and  _456
REMARK  196  A    between atoms: _456  and  _457
REMARK  197  A    between atoms: _456  and  _459
REMARK  198  A    between atoms: _459  and  _460
REMARK  199  A    between atoms: _463  and  _465
REMARK  200  A    between atoms: _465  and  _466
REMARK  201  A    between atoms: _465  and  _468
REMARK  202  A    between atoms: _468  and  _469
REMARK  203  A    between atoms: _472  and  _474
REMARK  204  A    between atoms: _474  and  _475
REMARK  205  A    between atoms: _474  and  _477
REMARK  206  A    between atoms: _477  and  _478
REMARK  207  A    between atoms: _478  and  _479
REMARK  208  A    between atoms: _479  and  _480
REMARK  209  A    between atoms: _480  and  _481
REMARK  210  A    between atoms: _485  and  _487
REMARK  211  A    between atoms: _487  and  _488
REMARK  212  A    between atoms: _487  and  _490
REMARK  213  A    between atoms: _490  and  _491
REMARK  214  A    between atoms: _496  and  _498
REMARK  215  A    between atoms: _498  and  _499
REMARK  216  A    between atoms: _498  and  _501
REMARK  217  A    between atoms: _501  and  _502
REMARK  218  A    between atoms: _512  and  _514
REMARK  219  A    between atoms: _514  and  _515
REMARK  220  A    between atoms: _514  and  _517
REMARK  221  A    between atoms: _517  and  _518
REMARK  222  A    between atoms: _518  and  _519
REMARK  223  A    between atoms: _522  and  _524
REMARK  224  A    between atoms: _524  and  _525
REMARK  225  A    between atoms: _524  and  _527
REMARK  226  A    between atoms: _527  and  _528
REMARK  227  A    between atoms: _530  and  _532
REMARK  228  A    between atoms: _532  and  _533
REMARK  229  A    between atoms: _532  and  _535
REMARK  230  A    between atoms: _535  and  _536
REMARK  231  A    between atoms: _542  and  _544
REMARK  232  A    between atoms: _544  and  _545
REMARK  233  A    between atoms: _544  and  _547
REMARK  234  A    between atoms: _547  and  _548
REMARK  235  A    between atoms: _551  and  _553
REMARK  236  A    between atoms: _553  and  _554
REMARK  237  A    between atoms: _553  and  _556
REMARK  238  A    between atoms: _559  and  _561
REMARK  239  A    between atoms: _561  and  _562
REMARK  240  A    between atoms: _564  and  _566
REMARK  241  A    between atoms: _566  and  _567
REMARK  242  A    between atoms: _566  and  _569
REMARK  243  A    between atoms: _569  and  _570
REMARK  244  A    between atoms: _573  and  _575
REMARK  245  A    between atoms: _575  and  _576
REMARK  246  A    between atoms: _575  and  _578
REMARK  247  A    between atoms: _578  and  _579
REMARK  248  A    between atoms: _579  and  _580
REMARK  249  A    between atoms: _580  and  _581
REMARK  250  A    between atoms: _581  and  _582
REMARK  251  A    between atoms: _586  and  _588
REMARK  252  A    between atoms: _588  and  _589
REMARK  253  A    between atoms: _588  and  _591
REMARK                            x       y       z     vdW  Elec       q    Type
REMARK                         _______ _______ _______ _____ _____    ______ ____
ROOT
ATOM      1  O   HOH     1       0.025  -7.378 -23.808  0.00  0.00    +0.000 OA
ENDROOT
TORSDOF 0
REMARK  Name = ../refined-set-2016/3d0b/3d0b_pocket.pdb
REMARK  253 active torsions:
REMARK  status: ('A' for Active; 'I' for Inactive)
REMARK    1  A    between atoms: _1  and  _3
REMARK    2  A    between atoms: _3  and  _4
REMARK    3  A    between atoms: _3  and  _6
REMARK    4  A    between atoms: _6  and  _7
REMARK    5  A    between atoms: _13  and  _15
REMARK    6  A    between atoms: _15  and  _16
REMARK    7  A    between atoms: _15  and  _18
REMARK    8  A    between atoms: _18  and  _19
REMARK    9  A    between atoms: _19  and  _20
REMARK   10  A    between atoms: _25  and  _27
REMARK   11  A    between atoms: _27  and  _28
REMARK   12  A    between atoms: _27  and  _30
REMARK   13  A    between atoms: _30  and  _31
REMARK   14  A    between atoms: _34  and  _36
REMARK   15  A    between atoms: _36  and  _37
REMARK   16  A    between atoms: _36  and  _39
REMARK   17  A    between atoms: _39  and  _40
REMARK   18  A    between atoms: _40  and  _41
REMARK   19  A    between atoms: _43  and  _45
REMARK   20  A    between atoms: _45  and  _46
REMARK   21  A    between atoms: _45  and  _48
REMARK   22  A    between atoms: _48  and  _49
REMARK   23  A    between atoms: _49  and  _50
REMARK   24  A    between atoms: _53  and  _55
REMARK   25  A    between atoms: _55  and  _56
REMARK   26  A    between atoms: _55  and  _58
REMARK   27  A    between atoms: _58  and  _59
REMARK   28  A    between atoms: _62  and  _64
REMARK   29  A    between atoms: _64  and  _65
REMARK   30  A    between atoms: _64  and  _67
REMARK   31  A    between atoms: _67  and  _68
REMARK   32  A    between atoms: _71  and  _73
REMARK   33  A    between atoms: _73  and  _74
REMARK   34  A    between atoms: _73  and  _76
REMARK   35  A    between atoms: _76  and  _77
REMARK   36  A    between atoms: _79  and  _81
REMARK   37  A    between atoms: _81  and  _82
REMARK   38  A    between atoms: _81  and  _84
REMARK   39  A    between atoms: _84  and  _85
REMARK   40  A    between atoms: _90  and  _92
REMARK   41  A    between atoms: _92  and  _93
REMARK   42  A    between atoms: _92  and  _95
REMARK   43  A    between atoms: _95  and  _96
REMARK   44  A    between atoms: _98  and  _100
REMARK   45  A    between atoms: _100  and  _101
REMARK   46  A    between atoms: _100  and  _103
REMARK   47  A    between atoms: _103  and  _104
REMARK   48  A    between atoms: _106  and  _108
REMARK   49  A    between atoms: _108  and  _109
REMARK   50  A    between atoms: _108  and  _111
REMARK   51  A    between atoms: _111  and  _112
REMARK   52  A    between atoms: _115  and  _117
REMARK   53  A    between atoms: _117  and  _118
REMARK   54  A    between atoms: _121  and  _123
REMARK   55  A    between atoms: _123  and  _124
REMARK   56  A    between atoms: _123  and  _126
REMARK   57  A    between atoms: _126  and  _127
REMARK   58  A    between atoms: _130  and  _132
REMARK   59  A    between atoms: _132  and  _133
REMARK   60  A    between atoms: _132  and  _135
REMARK   61  A    between atoms: _135  and  _136
REMARK   62  A    between atoms: _139  and  _141
REMARK   63  A    between atoms: _141  and  _142
REMARK   64  A    between atoms: _141  and  _144
REMARK   65  A    between atoms: _144  and  _145
REMARK   66  A    between atoms: _145  and  _146
REMARK   67  A    between atoms: _146  and  _147
REMARK   68  A    between atoms: _147  and  _148
REMARK   69  A    between atoms: _152  and  _154
REMARK   70  A    between atoms: _154  and  _155
REMARK   71  A    between atoms: _154  and  _157
REMARK   72  A    between atoms: _157  and  _158
REMARK   73  A    between atoms: _161  and  _163
REMARK   74  A    between atoms: _163  and  _164
REMARK   75  A    between atoms: _163  and  _166
REMARK   76  A    between atoms: _166  and  _167
REMARK   77  A    between atoms: _170  and  _172
REMARK   78  A    between atoms: _172  and  _173
REMARK   79  A    between atoms: _172  and  _175
REMARK   80  A    between atoms: _175  and  _176
REMARK   81  A    between atoms: _179  and  _181
REMARK   82  A    between atoms: _181  and  _182
REMARK   83  A    between atoms: _181  and  _184
REMARK   84  A    between atoms: _187  and  _189
REMARK   85  A    between atoms: _189  and  _190
REMARK   86  A    between atoms: _189  and  _192
REMARK   87  A    between atoms: _192  and  _193
REMARK   88  A    between atoms: _196  and  _198
REMARK   89  A    between atoms: _198  and  _199
REMARK   90  A    between atoms: _198  and  _201
REMARK   91  A    between atoms: _201  and  _202
REMARK   92  A    between atoms: _205  and  _207
REMARK   93  A    between atoms: _207  and  _208
REMARK   94  A    between atoms: _210  and  _212
REMARK   95  A    between atoms: _212  and  _213
REMARK   96  A    between atoms: _212  and  _215
REMARK   97  A    between atoms: _215  and  _216
REMARK   98  A    between atoms: _219  and  _221
REMARK   99  A    between atoms: _221  and  _222
REMARK  100  A    between atoms: _224  and  _226
REMARK  101  A    between atoms: _226  and  _227
REMARK  102  A    between atoms: _226  and  _229
REMARK  103  A    between atoms: _229  and  _230
REMARK  104  A    between atoms: _230  and  _231
REMARK  105  A    between atoms: _233  and  _235
REMARK  106  A    between atoms: _235  and  _236
REMARK  107  A    between atoms: _235  and  _238
REMARK  108  A    between atoms: _238  and  _239
REMARK  109  A    between atoms: _242  and  _244
REMARK  110  A    between atoms: _244  and  _245
REMARK  111  A    between atoms: _244  and  _247
REMARK  112  A    between atoms: _247  and  _248
REMARK  113  A    between atoms: _251  and  _253
REMARK  114  A    between atoms: _253  and  _254
REMARK  115  A    between atoms: _253  and  _256
REMARK  116  A    between atoms: _256  and  _257
REMARK  117  A    between atoms: _260  and  _262
REMARK  118  A    between atoms: _262  and  _263
REMARK  119  A    between atoms: _262  and  _265
REMARK  120  A    between atoms: _265  and  _266
REMARK  121  A    between atoms: _269  and  _271
REMARK  122  A    between atoms: _271  and  _272
REMARK  123  A    between atoms: _271  and  _274
REMARK  124  A    between atoms: _274  and  _275
REMARK  125  A    between atoms: _280  and  _282
REMARK  126  A    between atoms: _282  and  _283
REMARK  127  A    between atoms: _282  and  _285
REMARK  128  A    between atoms: _285  and  _286
REMARK  129  A    between atoms: _291  and  _293
REMARK  130  A    between atoms: _293  and  _294
REMARK  131  A    between atoms: _293  and  _296
REMARK  132  A    between atoms: _296  and  _297
REMARK  133  A    between atoms: _300  and  _302
REMARK  134  A    between atoms: _302  and  _303
REMARK  135  A    between atoms: _305  and  _307
REMARK  136  A    between atoms: _307  and  _308
REMARK  137  A    between atoms: _307  and  _310
REMARK  138  A    between atoms: _310  and  _311
REMARK  139  A    between atoms: _314  and  _316
REMARK  140  A    between atoms: _316  and  _317
REMARK  141  A    between atoms: _316  and  _319
REMARK  142  A    between atoms: _319  and  _320
REMARK  143  A    between atoms: _323  and  _325
REMARK  144  A    between atoms: _325  and  _326
REMARK  145  A    between atoms: _329  and  _331
REMARK  146  A    between atoms: _331  and  _332
REMARK  147  A    between atoms: _331  and  _334
REMARK  148  A    between atoms: _334  and  _335
REMARK  149  A    between atoms: _335  and  _336
REMARK  150  A    between atoms: _336  and  _337
REMARK  151  A    between atoms: _337  and  _338
REMARK  152  A    between atoms: _342  and  _344
REMARK  153  A    between atoms: _344  and  _345
REMARK  154  A    between atoms: _344  and  _347
REMARK  155  A    between atoms: _347  and  _348
REMARK  156  A    between atoms: _351  and  _353
REMARK  157  A    between atoms: _353  and  _354
REMARK  158  A    between atoms: _353  and  _356
REMARK  159  A    between atoms: _356  and  _357
REMARK  160  A    between atoms: _363  and  _365
REMARK  161  A    between atoms: _365  and  _366
REMARK  162  A    between atoms: _368  and  _370
REMARK  163  A    between atoms: _370  and  _371
REMARK  164  A    between atoms: _370  and  _373
REMARK  165  A    between atoms: _376  and  _378
REMARK  166  A    between atoms: _378  and  _379
REMARK  167  A    between atoms: _381  and  _383
REMARK  168  A    between atoms: _383  and  _384
REMARK  169  A    between atoms: _383  and  _386
REMARK  170  A    between atoms: _386  and  _387
REMARK  171  A    between atoms: _393  and  _395
REMARK  172  A    between atoms: _395  and  _396
REMARK  173  A    between atoms: _395  and  _398
REMARK  174  A    between atoms: _398  and  _399
REMARK  175  A    between atoms: _404  and  _405
REMARK  176  A    between atoms: _407  and  _409
REMARK  177  A    between atoms: _409  and  _410
REMARK  178  A    between atoms: _409  and  _412
REMARK  179  A    between atoms: _412  and  _413
REMARK  180  A    between atoms: _415  and  _417
REMARK  181  A    between atoms: _417  and  _418
REMARK  182  A    between atoms: _417  and  _420
REMARK  183  A    between atoms: _420  and  _421
REMARK  184  A    between atoms: _426  and  _427
REMARK  185  A    between atoms: _429  and  _431
REMARK  186  A    between atoms: _431  and  _432
REMARK  187  A    between atoms: _431  and  _434
REMARK  188  A    between atoms: _437  and  _439
REMARK  189  A    between atoms: _439  and  _440
REMARK  190  A    between atoms: _439  and  _442
REMARK  191  A    between atoms: _442  and  _443
REMARK  192  A    between atoms: _446  and  _448
REMARK  193  A    between atoms: _448  and  _449
REMARK  194  A    between atoms: _448  and  _451
REMARK  195  A    between atoms: _454  and  _456
REMARK  196  A    between atoms: _456  and  _457
REMARK  197  A    between atoms: _456  and  _459
REMARK  198  A    between atoms: _459  and  _460
REMARK  199  A    between atoms: _463  and  _465
REMARK  200  A    between atoms: _465  and  _466
REMARK  201  A    between atoms: _465  and  _468
REMARK  202  A    between atoms: _468  and  _469
REMARK  203  A    between atoms: _472  and  _474
REMARK  204  A    between atoms: _474  and  _475
REMARK  205  A    between atoms: _474  and  _477
REMARK  206  A    between atoms: _477  and  _478
REMARK  207  A    between atoms: _478  and  _479
REMARK  208  A    between atoms: _479  and  _480
REMARK  209  A    between atoms: _480  and  _481
REMARK  210  A    between atoms: _485  and  _487
REMARK  211  A    between atoms: _487  and  _488
REMARK  212  A    between atoms: _487  and  _490
REMARK  213  A    between atoms: _490  and  _491
REMARK  214  A    between atoms: _496  and  _498
REMARK  215  A    between atoms: _498  and  _499
REMARK  216  A    between atoms: _498  and  _501
REMARK  217  A    between atoms: _501  and  _502
REMARK  218  A    between atoms: _512  and  _514
REMARK  219  A    between atoms: _514  and  _515
REMARK  220  A    between atoms: _514  and  _517
REMARK  221  A    between atoms: _517  and  _518
REMARK  222  A    between atoms: _518  and  _519
REMARK  223  A    between atoms: _522  and  _524
REMARK  224  A    between atoms: _524  and  _525
REMARK  225  A    between atoms: _524  and  _527
REMARK  226  A    between atoms: _527  and  _528
REMARK  227  A    between atoms: _530  and  _532
REMARK  228  A    between atoms: _532  and  _533
REMARK  229  A    between atoms: _532  and  _535
REMARK  230  A    between atoms: _535  and  _536
REMARK  231  A    between atoms: _542  and  _544
REMARK  232  A    between atoms: _544  and  _545
REMARK  233  A    between atoms: _544  and  _547
REMARK  234  A    between atoms: _547  and  _548
REMARK  235  A    between atoms: _551  and  _553
REMARK  236  A    between atoms: _553  and  _554
REMARK  237  A    between atoms: _553  and  _556
REMARK  238  A    between atoms: _559  and  _561
REMARK  239  A    between atoms: _561  and  _562
REMARK  240  A    between atoms: _564  and  _566
REMARK  241  A    between atoms: _566  and  _567
REMARK  242  A    between atoms: _566  and  _569
REMARK  243  A    between atoms: _569  and  _570
REMARK  244  A    between atoms: _573  and  _575
REMARK  245  A    between atoms: _575  and  _576
REMARK  246  A    between atoms: _575  and  _578
REMARK  247  A    between atoms: _578  and  _579
REMARK  248  A    between atoms: _579  and  _580
REMARK  249  A    between atoms: _580  and  _581
REMARK  250  A    between atoms: _581  and  _582
REMARK  251  A    between atoms: _586  and  _588
REMARK  252  A    between atoms: _588  and  _589
REMARK  253  A    between atoms: _588  and  _591
REMARK                            x       y       z     vdW  Elec       q    Type
REMARK                         _______ _______ _______ _____ _____    ______ ____
ROOT
ATOM      1  O   HOH     1       3.500  -8.031 -29.323  0.00  0.00    +0.000 OA
ENDROOT
TORSDOF 0
REMARK  Name = ../refined-set-2016/3d0b/3d0b_pocket.pdb
REMARK  253 active torsions:
REMARK  status: ('A' for Active; 'I' for Inactive)
REMARK    1  A    between atoms: _1  and  _3
REMARK    2  A    between atoms: _3  and  _4
REMARK    3  A    between atoms: _3  and  _6
REMARK    4  A    between atoms: _6  and  _7
REMARK    5  A    between atoms: _13  and  _15
REMARK    6  A    between atoms: _15  and  _16
REMARK    7  A    between atoms: _15  and  _18
REMARK    8  A    between atoms: _18  and  _19
REMARK    9  A    between atoms: _19  and  _20
REMARK   10  A    between atoms: _25  and  _27
REMARK   11  A    between atoms: _27  and  _28
REMARK   12  A    between atoms: _27  and  _30
REMARK   13  A    between atoms: _30  and  _31
REMARK   14  A    between atoms: _34  and  _36
REMARK   15  A    between atoms: _36  and  _37
REMARK   16  A    between atoms: _36  and  _39
REMARK   17  A    between atoms: _39  and  _40
REMARK   18  A    between atoms: _40  and  _41
REMARK   19  A    between atoms: _43  and  _45
REMARK   20  A    between atoms: _45  and  _46
REMARK   21  A    between atoms: _45  and  _48
REMARK   22  A    between atoms: _48  and  _49
REMARK   23  A    between atoms: _49  and  _50
REMARK   24  A    between atoms: _53  and  _55
REMARK   25  A    between atoms: _55  and  _56
REMARK   26  A    between atoms: _55  and  _58
REMARK   27  A    between atoms: _58  and  _59
REMARK   28  A    between atoms: _62  and  _64
REMARK   29  A    between atoms: _64  and  _65
REMARK   30  A    between atoms: _64  and  _67
REMARK   31  A    between atoms: _67  and  _68
REMARK   32  A    between atoms: _71  and  _73
REMARK   33  A    between atoms: _73  and  _74
REMARK   34  A    between atoms: _73  and  _76
REMARK   35  A    between atoms: _76  and  _77
REMARK   36  A    between atoms: _79  and  _81
REMARK   37  A    between atoms: _81  and  _82
REMARK   38  A    between atoms: _81  and  _84
REMARK   39  A    between atoms: _84  and  _85
REMARK   40  A    between atoms: _90  and  _92
REMARK   41  A    between atoms: _92  and  _93
REMARK   42  A    between atoms: _92  and  _95
REMARK   43  A    between atoms: _95  and  _96
REMARK   44  A    between atoms: _98  and  _100
REMARK   45  A    between atoms: _100  and  _101
REMARK   46  A    between atoms: _100  and  _103
REMARK   47  A    between atoms: _103  and  _104
REMARK   48  A    between atoms: _106  and  _108
REMARK   49  A    between atoms: _108  and  _109
REMARK   50  A    between atoms: _108  and  _111
REMARK   51  A    between atoms: _111  and  _112
REMARK   52  A    between atoms: _115  and  _117
REMARK   53  A    between atoms: _117  and  _118
REMARK   54  A    between atoms: _121  and  _123
REMARK   55  A    between atoms: _123  and  _124
REMARK   56  A    between atoms: _123  and  _126
REMARK   57  A    between atoms: _126  and  _127
REMARK   58  A    between atoms: _130  and  _132
REMARK   59  A    between atoms: _132  and  _133
REMARK   60  A    between atoms: _132  and  _135
REMARK   61  A    between atoms: _135  and  _136
REMARK   62  A    between atoms: _139  and  _141
REMARK   63  A    between atoms: _141  and  _142
REMARK   64  A    between atoms: _141  and  _144
REMARK   65  A    between atoms: _144  and  _145
REMARK   66  A    between atoms: _145  and  _146
REMARK   67  A    between atoms: _146  and  _147
REMARK   68  A    between atoms: _147  and  _148
REMARK   69  A    between atoms: _152  and  _154
REMARK   70  A    between atoms: _154  and  _155
REMARK   71  A    between atoms: _154  and  _157
REMARK   72  A    between atoms: _157  and  _158
REMARK   73  A    between atoms: _161  and  _163
REMARK   74  A    between atoms: _163  and  _164
REMARK   75  A    between atoms: _163  and  _166
REMARK   76  A    between atoms: _166  and  _167
REMARK   77  A    between atoms: _170  and  _172
REMARK   78  A    between atoms: _172  and  _173
REMARK   79  A    between atoms: _172  and  _175
REMARK   80  A    between atoms: _175  and  _176
REMARK   81  A    between atoms: _179  and  _181
REMARK   82  A    between atoms: _181  and  _182
REMARK   83  A    between atoms: _181  and  _184
REMARK   84  A    between atoms: _187  and  _189
REMARK   85  A    between atoms: _189  and  _190
REMARK   86  A    between atoms: _189  and  _192
REMARK   87  A    between atoms: _192  and  _193
REMARK   88  A    between atoms: _196  and  _198
REMARK   89  A    between atoms: _198  and  _199
REMARK   90  A    between atoms: _198  and  _201
REMARK   91  A    between atoms: _201  and  _202
REMARK   92  A    between atoms: _205  and  _207
REMARK   93  A    between atoms: _207  and  _208
REMARK   94  A    between atoms: _210  and  _212
REMARK   95  A    between atoms: _212  and  _213
REMARK   96  A    between atoms: _212  and  _215
REMARK   97  A    between atoms: _215  and  _216
REMARK   98  A    between atoms: _219  and  _221
REMARK   99  A    between atoms: _221  and  _222
REMARK  100  A    between atoms: _224  and  _226
REMARK  101  A    between atoms: _226  and  _227
REMARK  102  A    between atoms: _226  and  _229
REMARK  103  A    between atoms: _229  and  _230
REMARK  104  A    between atoms: _230  and  _231
REMARK  105  A    between atoms: _233  and  _235
REMARK  106  A    between atoms: _235  and  _236
REMARK  107  A    between atoms: _235  and  _238
REMARK  108  A    between atoms: _238  and  _239
REMARK  109  A    between atoms: _242  and  _244
REMARK  110  A    between atoms: _244  and  _245
REMARK  111  A    between atoms: _244  and  _247
REMARK  112  A    between atoms: _247  and  _248
REMARK  113  A    between atoms: _251  and  _253
REMARK  114  A    between atoms: _253  and  _254
REMARK  115  A    between atoms: _253  and  _256
REMARK  116  A    between atoms: _256  and  _257
REMARK  117  A    between atoms: _260  and  _262
REMARK  118  A    between atoms: _262  and  _263
REMARK  119  A    between atoms: _262  and  _265
REMARK  120  A    between atoms: _265  and  _266
REMARK  121  A    between atoms: _269  and  _271
REMARK  122  A    between atoms: _271  and  _272
REMARK  123  A    between atoms: _271  and  _274
REMARK  124  A    between atoms: _274  and  _275
REMARK  125  A    between atoms: _280  and  _282
REMARK  126  A    between atoms: _282  and  _283
REMARK  127  A    between atoms: _282  and  _285
REMARK  128  A    between atoms: _285  and  _286
REMARK  129  A    between atoms: _291  and  _293
REMARK  130  A    between atoms: _293  and  _294
REMARK  131  A    between atoms: _293  and  _296
REMARK  132  A    between atoms: _296  and  _297
REMARK  133  A    between atoms: _300  and  _302
REMARK  134  A    between atoms: _302  and  _303
REMARK  135  A    between atoms: _305  and  _307
REMARK  136  A    between atoms: _307  and  _308
REMARK  137  A    between atoms: _307  and  _310
REMARK  138  A    between atoms: _310  and  _311
REMARK  139  A    between atoms: _314  and  _316
REMARK  140  A    between atoms: _316  and  _317
REMARK  141  A    between atoms: _316  and  _319
REMARK  142  A    between atoms: _319  and  _320
REMARK  143  A    between atoms: _323  and  _325
REMARK  144  A    between atoms: _325  and  _326
REMARK  145  A    between atoms: _329  and  _331
REMARK  146  A    between atoms: _331  and  _332
REMARK  147  A    between atoms: _331  and  _334
REMARK  148  A    between atoms: _334  and  _335
REMARK  149  A    between atoms: _335  and  _336
REMARK  150  A    between atoms: _336  and  _337
REMARK  151  A    between atoms: _337  and  _338
REMARK  152  A    between atoms: _342  and  _344
REMARK  153  A    between atoms: _344  and  _345
REMARK  154  A    between atoms: _344  and  _347
REMARK  155  A    between atoms: _347  and  _348
REMARK  156  A    between atoms: _351  and  _353
REMARK  157  A    between atoms: _353  and  _354
REMARK  158  A    between atoms: _353  and  _356
REMARK  159  A    between atoms: _356  and  _357
REMARK  160  A    between atoms: _363  and  _365
REMARK  161  A    between atoms: _365  and  _366
REMARK  162  A    between atoms: _368  and  _370
REMARK  163  A    between atoms: _370  and  _371
REMARK  164  A    between atoms: _370  and  _373
REMARK  165  A    between atoms: _376  and  _378
REMARK  166  A    between atoms: _378  and  _379
REMARK  167  A    between atoms: _381  and  _383
REMARK  168  A    between atoms: _383  and  _384
REMARK  169  A    between atoms: _383  and  _386
REMARK  170  A    between atoms: _386  and  _387
REMARK  171  A    between atoms: _393  and  _395
REMARK  172  A    between atoms: _395  and  _396
REMARK  173  A    between atoms: _395  and  _398
REMARK  174  A    between atoms: _398  and  _399
REMARK  175  A    between atoms: _404  and  _405
REMARK  176  A    between atoms: _407  and  _409
REMARK  177  A    between atoms: _409  and  _410
REMARK  178  A    between atoms: _409  and  _412
REMARK  179  A    between atoms: _412  and  _413
REMARK  180  A    between atoms: _415  and  _417
REMARK  181  A    between atoms: _417  and  _418
REMARK  182  A    between atoms: _417  and  _420
REMARK  183  A    between atoms: _420  and  _421
REMARK  184  A    between atoms: _426  and  _427
REMARK  185  A    between atoms: _429  and  _431
REMARK  186  A    between atoms: _431  and  _432
REMARK  187  A    between atoms: _431  and  _434
REMARK  188  A    between atoms: _437  and  _439
REMARK  189  A    between atoms: _439  and  _440
REMARK  190  A    between atoms: _439  and  _442
REMARK  191  A    between atoms: _442  and  _443
REMARK  192  A    between atoms: _446  and  _448
REMARK  193  A    between atoms: _448  and  _449
REMARK  194  A    between atoms: _448  and  _451
REMARK  195  A    between atoms: _454  and  _456
REMARK  196  A    between atoms: _456  and  _457
REMARK  197  A    between atoms: _456  and  _459
REMARK  198  A    between atoms: _459  and  _460
REMARK  199  A    between atoms: _463  and  _465
REMARK  200  A    between atoms: _465  and  _466
REMARK  201  A    between atoms: _465  and  _468
REMARK  202  A    between atoms: _468  and  _469
REMARK  203  A    between atoms: _472  and  _474
REMARK  204  A    between atoms: _474  and  _475
REMARK  205  A    between atoms: _474  and  _477
REMARK  206  A    between atoms: _477  and  _478
REMARK  207  A    between atoms: _478  and  _479
REMARK  208  A    between atoms: _479  and  _480
REMARK  209  A    between atoms: _480  and  _481
REMARK  210  A    between atoms: _485  and  _487
REMARK  211  A    between atoms: _487  and  _488
REMARK  212  A    between atoms: _487  and  _490
REMARK  213  A    between atoms: _490  and  _491
REMARK  214  A    between atoms: _496  and  _498
REMARK  215  A    between atoms: _498  and  _499
REMARK  216  A    between atoms: _498  and  _501
REMARK  217  A    between atoms: _501  and  _502
REMARK  218  A    between atoms: _512  and  _514
REMARK  219  A    between atoms: _514  and  _515
REMARK  220  A    between atoms: _514  and  _517
REMARK  221  A    between atoms: _517  and  _518
REMARK  222  A    between atoms: _518  and  _519
REMARK  223  A    between atoms: _522  and  _524
REMARK  224  A    between atoms: _524  and  _525
REMARK  225  A    between atoms: _524  and  _527
REMARK  226  A    between atoms: _527  and  _528
REMARK  227  A    between atoms: _530  and  _532
REMARK  228  A    between atoms: _532  and  _533
REMARK  229  A    between atoms: _532  and  _535
REMARK  230  A    between atoms: _535  and  _536
REMARK  231  A    between atoms: _542  and  _544
REMARK  232  A    between atoms: _544  and  _545
REMARK  233  A    between atoms: _544  and  _547
REMARK  234  A    between atoms: _547  and  _548
REMARK  235  A    between atoms: _551  and  _553
REMARK  236  A    between atoms: _553  and  _554
REMARK  237  A    between atoms: _553  and  _556
REMARK  238  A    between atoms: _559  and  _561
REMARK  239  A    between atoms: _561  and  _562
REMARK  240  A    between atoms: _564  and  _566
REMARK  241  A    between atoms: _566  and  _567
REMARK  242  A    between atoms: _566  and  _569
REMARK  243  A    between atoms: _569  and  _570
REMARK  244  A    between atoms: _573  and  _575
REMARK  245  A    between atoms: _575  and  _576
REMARK  246  A    between atoms: _575  and  _578
REMARK  247  A    between atoms: _578  and  _579
REMARK  248  A    between atoms: _579  and  _580
REMARK  249  A    between atoms: _580  and  _581
REMARK  250  A    between atoms: _581  and  _582
REMARK  251  A    between atoms: _586  and  _588
REMARK  252  A    between atoms: _588  and  _589
REMARK  253  A    between atoms: _588  and  _591
REMARK                            x       y       z     vdW  Elec       q    Type
REMARK                         _______ _______ _______ _____ _____    ______ ____
ROOT
ATOM      1  O   HOH     1       8.184  -7.273 -24.751  0.00  0.00    +0.000 OA
ENDROOT
TORSDOF 0
REMARK  Name = ../refined-set-2016/3d0b/3d0b_pocket.pdb
REMARK  253 active torsions:
REMARK  status: ('A' for Active; 'I' for Inactive)
REMARK    1  A    between atoms: _1  and  _3
REMARK    2  A    between atoms: _3  and  _4
REMARK    3  A    between atoms: _3  and  _6
REMARK    4  A    between atoms: _6  and  _7
REMARK    5  A    between atoms: _13  and  _15
REMARK    6  A    between atoms: _15  and  _16
REMARK    7  A    between atoms: _15  and  _18
REMARK    8  A    between atoms: _18  and  _19
REMARK    9  A    between atoms: _19  and  _20
REMARK   10  A    between atoms: _25  and  _27
REMARK   11  A    between atoms: _27  and  _28
REMARK   12  A    between atoms: _27  and  _30
REMARK   13  A    between atoms: _30  and  _31
REMARK   14  A    between atoms: _34  and  _36
REMARK   15  A    between atoms: _36  and  _37
REMARK   16  A    between atoms: _36  and  _39
REMARK   17  A    between atoms: _39  and  _40
REMARK   18  A    between atoms: _40  and  _41
REMARK   19  A    between atoms: _43  and  _45
REMARK   20  A    between atoms: _45  and  _46
REMARK   21  A    between atoms: _45  and  _48
REMARK   22  A    between atoms: _48  and  _49
REMARK   23  A    between atoms: _49  and  _50
REMARK   24  A    between atoms: _53  and  _55
REMARK   25  A    between atoms: _55  and  _56
REMARK   26  A    between atoms: _55  and  _58
REMARK   27  A    between atoms: _58  and  _59
REMARK   28  A    between atoms: _62  and  _64
REMARK   29  A    between atoms: _64  and  _65
REMARK   30  A    between atoms: _64  and  _67
REMARK   31  A    between atoms: _67  and  _68
REMARK   32  A    between atoms: _71  and  _73
REMARK   33  A    between atoms: _73  and  _74
REMARK   34  A    between atoms: _73  and  _76
REMARK   35  A    between atoms: _76  and  _77
REMARK   36  A    between atoms: _79  and  _81
REMARK   37  A    between atoms: _81  and  _82
REMARK   38  A    between atoms: _81  and  _84
REMARK   39  A    between atoms: _84  and  _85
REMARK   40  A    between atoms: _90  and  _92
REMARK   41  A    between atoms: _92  and  _93
REMARK   42  A    between atoms: _92  and  _95
REMARK   43  A    between atoms: _95  and  _96
REMARK   44  A    between atoms: _98  and  _100
REMARK   45  A    between atoms: _100  and  _101
REMARK   46  A    between atoms: _100  and  _103
REMARK   47  A    between atoms: _103  and  _104
REMARK   48  A    between atoms: _106  and  _108
REMARK   49  A    between atoms: _108  and  _109
REMARK   50  A    between atoms: _108  and  _111
REMARK   51  A    between atoms: _111  and  _112
REMARK   52  A    between atoms: _115  and  _117
REMARK   53  A    between atoms: _117  and  _118
REMARK   54  A    between atoms: _121  and  _123
REMARK   55  A    between atoms: _123  and  _124
REMARK   56  A    between atoms: _123  and  _126
REMARK   57  A    between atoms: _126  and  _127
REMARK   58  A    between atoms: _130  and  _132
REMARK   59  A    between atoms: _132  and  _133
REMARK   60  A    between atoms: _132  and  _135
REMARK   61  A    between atoms: _135  and  _136
REMARK   62  A    between atoms: _139  and  _141
REMARK   63  A    between atoms: _141  and  _142
REMARK   64  A    between atoms: _141  and  _144
REMARK   65  A    between atoms: _144  and  _145
REMARK   66  A    between atoms: _145  and  _146
REMARK   67  A    between atoms: _146  and  _147
REMARK   68  A    between atoms: _147  and  _148
REMARK   69  A    between atoms: _152  and  _154
REMARK   70  A    between atoms: _154  and  _155
REMARK   71  A    between atoms: _154  and  _157
REMARK   72  A    between atoms: _157  and  _158
REMARK   73  A    between atoms: _161  and  _163
REMARK   74  A    between atoms: _163  and  _164
REMARK   75  A    between atoms: _163  and  _166
REMARK   76  A    between atoms: _166  and  _167
REMARK   77  A    between atoms: _170  and  _172
REMARK   78  A    between atoms: _172  and  _173
REMARK   79  A    between atoms: _172  and  _175
REMARK   80  A    between atoms: _175  and  _176
REMARK   81  A    between atoms: _179  and  _181
REMARK   82  A    between atoms: _181  and  _182
REMARK   83  A    between atoms: _181  and  _184
REMARK   84  A    between atoms: _187  and  _189
REMARK   85  A    between atoms: _189  and  _190
REMARK   86  A    between atoms: _189  and  _192
REMARK   87  A    between atoms: _192  and  _193
REMARK   88  A    between atoms: _196  and  _198
REMARK   89  A    between atoms: _198  and  _199
REMARK   90  A    between atoms: _198  and  _201
REMARK   91  A    between atoms: _201  and  _202
REMARK   92  A    between atoms: _205  and  _207
REMARK   93  A    between atoms: _207  and  _208
REMARK   94  A    between atoms: _210  and  _212
REMARK   95  A    between atoms: _212  and  _213
REMARK   96  A    between atoms: _212  and  _215
REMARK   97  A    between atoms: _215  and  _216
REMARK   98  A    between atoms: _219  and  _221
REMARK   99  A    between atoms: _221  and  _222
REMARK  100  A    between atoms: _224  and  _226
REMARK  101  A    between atoms: _226  and  _227
REMARK  102  A    between atoms: _226  and  _229
REMARK  103  A    between atoms: _229  and  _230
REMARK  104  A    between atoms: _230  and  _231
REMARK  105  A    between atoms: _233  and  _235
REMARK  106  A    between atoms: _235  and  _236
REMARK  107  A    between atoms: _235  and  _238
REMARK  108  A    between atoms: _238  and  _239
REMARK  109  A    between atoms: _242  and  _244
REMARK  110  A    between atoms: _244  and  _245
REMARK  111  A    between atoms: _244  and  _247
REMARK  112  A    between atoms: _247  and  _248
REMARK  113  A    between atoms: _251  and  _253
REMARK  114  A    between atoms: _253  and  _254
REMARK  115  A    between atoms: _253  and  _256
REMARK  116  A    between atoms: _256  and  _257
REMARK  117  A    between atoms: _260  and  _262
REMARK  118  A    between atoms: _262  and  _263
REMARK  119  A    between atoms: _262  and  _265
REMARK  120  A    between atoms: _265  and  _266
REMARK  121  A    between atoms: _269  and  _271
REMARK  122  A    between atoms: _271  and  _272
REMARK  123  A    between atoms: _271  and  _274
REMARK  124  A    between atoms: _274  and  _275
REMARK  125  A    between atoms: _280  and  _282
REMARK  126  A    between atoms: _282  and  _283
REMARK  127  A    between atoms: _282  and  _285
REMARK  128  A    between atoms: _285  and  _286
REMARK  129  A    between atoms: _291  and  _293
REMARK  130  A    between atoms: _293  and  _294
REMARK  131  A    between atoms: _293  and  _296
REMARK  132  A    between atoms: _296  and  _297
REMARK  133  A    between atoms: _300  and  _302
REMARK  134  A    between atoms: _302  and  _303
REMARK  135  A    between atoms: _305  and  _307
REMARK  136  A    between atoms: _307  and  _308
REMARK  137  A    between atoms: _307  and  _310
REMARK  138  A    between atoms: _310  and  _311
REMARK  139  A    between atoms: _314  and  _316
REMARK  140  A    between atoms: _316  and  _317
REMARK  141  A    between atoms: _316  and  _319
REMARK  142  A    between atoms: _319  and  _320
REMARK  143  A    between atoms: _323  and  _325
REMARK  144  A    between atoms: _325  and  _326
REMARK  145  A    between atoms: _329  and  _331
REMARK  146  A    between atoms: _331  and  _332
REMARK  147  A    between atoms: _331  and  _334
REMARK  148  A    between atoms: _334  and  _335
REMARK  149  A    between atoms: _335  and  _336
REMARK  150  A    between atoms: _336  and  _337
REMARK  151  A    between atoms: _337  and  _338
REMARK  152  A    between atoms: _342  and  _344
REMARK  153  A    between atoms: _344  and  _345
REMARK  154  A    between atoms: _344  and  _347
REMARK  155  A    between atoms: _347  and  _348
REMARK  156  A    between atoms: _351  and  _353
REMARK  157  A    between atoms: _353  and  _354
REMARK  158  A    between atoms: _353  and  _356
REMARK  159  A    between atoms: _356  and  _357
REMARK  160  A    between atoms: _363  and  _365
REMARK  161  A    between atoms: _365  and  _366
REMARK  162  A    between atoms: _368  and  _370
REMARK  163  A    between atoms: _370  and  _371
REMARK  164  A    between atoms: _370  and  _373
REMARK  165  A    between atoms: _376  and  _378
REMARK  166  A    between atoms: _378  and  _379
REMARK  167  A    between atoms: _381  and  _383
REMARK  168  A    between atoms: _383  and  _384
REMARK  169  A    between atoms: _383  and  _386
REMARK  170  A    between atoms: _386  and  _387
REMARK  171  A    between atoms: _393  and  _395
REMARK  172  A    between atoms: _395  and  _396
REMARK  173  A    between atoms: _395  and  _398
REMARK  174  A    between atoms: _398  and  _399
REMARK  175  A    between atoms: _404  and  _405
REMARK  176  A    between atoms: _407  and  _409
REMARK  177  A    between atoms: _409  and  _410
REMARK  178  A    between atoms: _409  and  _412
REMARK  179  A    between atoms: _412  and  _413
REMARK  180  A    between atoms: _415  and  _417
REMARK  181  A    between atoms: _417  and  _418
REMARK  182  A    between atoms: _417  and  _420
REMARK  183  A    between atoms: _420  and  _421
REMARK  184  A    between atoms: _426  and  _427
REMARK  185  A    between atoms: _429  and  _431
REMARK  186  A    between atoms: _431  and  _432
REMARK  187  A    between atoms: _431  and  _434
REMARK  188  A    between atoms: _437  and  _439
REMARK  189  A    between atoms: _439  and  _440
REMARK  190  A    between atoms: _439  and  _442
REMARK  191  A    between atoms: _442  and  _443
REMARK  192  A    between atoms: _446  and  _448
REMARK  193  A    between atoms: _448  and  _449
REMARK  194  A    between atoms: _448  and  _451
REMARK  195  A    between atoms: _454  and  _456
REMARK  196  A    between atoms: _456  and  _457
REMARK  197  A    between atoms: _456  and  _459
REMARK  198  A    between atoms: _459  and  _460
REMARK  199  A    between atoms: _463  and  _465
REMARK  200  A    between atoms: _465  and  _466
REMARK  201  A    between atoms: _465  and  _468
REMARK  202  A    between atoms: _468  and  _469
REMARK  203  A    between atoms: _472  and  _474
REMARK  204  A    between atoms: _474  and  _475
REMARK  205  A    between atoms: _474  and  _477
REMARK  206  A    between atoms: _477  and  _478
REMARK  207  A    between atoms: _478  and  _479
REMARK  208  A    between atoms: _479  and  _480
REMARK  209  A    between atoms: _480  and  _481
REMARK  210  A    between atoms: _485  and  _487
REMARK  211  A    between atoms: _487  and  _488
REMARK  212  A    between atoms: _487  and  _490
REMARK  213  A    between atoms: _490  and  _491
REMARK  214  A    between atoms: _496  and  _498
REMARK  215  A    between atoms: _498  and  _499
REMARK  216  A    between atoms: _498  and  _501
REMARK  217  A    between atoms: _501  and  _502
REMARK  218  A    between atoms: _512  and  _514
REMARK  219  A    between atoms: _514  and  _515
REMARK  220  A    between atoms: _514  and  _517
REMARK  221  A    between atoms: _517  and  _518
REMARK  222  A    between atoms: _518  and  _519
REMARK  223  A    between atoms: _522  and  _524
REMARK  224  A    between atoms: _524  and  _525
REMARK  225  A    between atoms: _524  and  _527
REMARK  226  A    between atoms: _527  and  _528
REMARK  227  A    between atoms: _530  and  _532
REMARK  228  A    between atoms: _532  and  _533
REMARK  229  A    between atoms: _532  and  _535
REMARK  230  A    between atoms: _535  and  _536
REMARK  231  A    between atoms: _542  and  _544
REMARK  232  A    between atoms: _544  and  _545
REMARK  233  A    between atoms: _544  and  _547
REMARK  234  A    between atoms: _547  and  _548
REMARK  235  A    between atoms: _551  and  _553
REMARK  236  A    between atoms: _553  and  _554
REMARK  237  A    between atoms: _553  and  _556
REMARK  238  A    between atoms: _559  and  _561
REMARK  239  A    between atoms: _561  and  _562
REMARK  240  A    between atoms: _564  and  _566
REMARK  241  A    between atoms: _566  and  _567
REMARK  242  A    between atoms: _566  and  _569
REMARK  243  A    between atoms: _569  and  _570
REMARK  244  A    between atoms: _573  and  _575
REMARK  245  A    between atoms: _575  and  _576
REMARK  246  A    between atoms: _575  and  _578
REMARK  247  A    between atoms: _578  and  _579
REMARK  248  A    between atoms: _579  and  _580
REMARK  249  A    between atoms: _580  and  _581
REMARK  250  A    between atoms: _581  and  _582
REMARK  251  A    between atoms: _586  and  _588
REMARK  252  A    between atoms: _588  and  _589
REMARK  253  A    between atoms: _588  and  _591
REMARK                            x       y       z     vdW  Elec       q    Type
REMARK                         _______ _______ _______ _____ _____    ______ ____
ROOT
ATOM      1  O   HOH     1       1.066  -5.830 -31.145  0.00  0.00    +0.000 OA
ENDROOT
TORSDOF 0
REMARK  Name = ../refined-set-2016/3d0b/3d0b_pocket.pdb
REMARK  253 active torsions:
REMARK  status: ('A' for Active; 'I' for Inactive)
REMARK    1  A    between atoms: _1  and  _3
REMARK    2  A    between atoms: _3  and  _4
REMARK    3  A    between atoms: _3  and  _6
REMARK    4  A    between atoms: _6  and  _7
REMARK    5  A    between atoms: _13  and  _15
REMARK    6  A    between atoms: _15  and  _16
REMARK    7  A    between atoms: _15  and  _18
REMARK    8  A    between atoms: _18  and  _19
REMARK    9  A    between atoms: _19  and  _20
REMARK   10  A    between atoms: _25  and  _27
REMARK   11  A    between atoms: _27  and  _28
REMARK   12  A    between atoms: _27  and  _30
REMARK   13  A    between atoms: _30  and  _31
REMARK   14  A    between atoms: _34  and  _36
REMARK   15  A    between atoms: _36  and  _37
REMARK   16  A    between atoms: _36  and  _39
REMARK   17  A    between atoms: _39  and  _40
REMARK   18  A    between atoms: _40  and  _41
REMARK   19  A    between atoms: _43  and  _45
REMARK   20  A    between atoms: _45  and  _46
REMARK   21  A    between atoms: _45  and  _48
REMARK   22  A    between atoms: _48  and  _49
REMARK   23  A    between atoms: _49  and  _50
REMARK   24  A    between atoms: _53  and  _55
REMARK   25  A    between atoms: _55  and  _56
REMARK   26  A    between atoms: _55  and  _58
REMARK   27  A    between atoms: _58  and  _59
REMARK   28  A    between atoms: _62  and  _64
REMARK   29  A    between atoms: _64  and  _65
REMARK   30  A    between atoms: _64  and  _67
REMARK   31  A    between atoms: _67  and  _68
REMARK   32  A    between atoms: _71  and  _73
REMARK   33  A    between atoms: _73  and  _74
REMARK   34  A    between atoms: _73  and  _76
REMARK   35  A    between atoms: _76  and  _77
REMARK   36  A    between atoms: _79  and  _81
REMARK   37  A    between atoms: _81  and  _82
REMARK   38  A    between atoms: _81  and  _84
REMARK   39  A    between atoms: _84  and  _85
REMARK   40  A    between atoms: _90  and  _92
REMARK   41  A    between atoms: _92  and  _93
REMARK   42  A    between atoms: _92  and  _95
REMARK   43  A    between atoms: _95  and  _96
REMARK   44  A    between atoms: _98  and  _100
REMARK   45  A    between atoms: _100  and  _101
REMARK   46  A    between atoms: _100  and  _103
REMARK   47  A    between atoms: _103  and  _104
REMARK   48  A    between atoms: _106  and  _108
REMARK   49  A    between atoms: _108  and  _109
REMARK   50  A    between atoms: _108  and  _111
REMARK   51  A    between atoms: _111  and  _112
REMARK   52  A    between atoms: _115  and  _117
REMARK   53  A    between atoms: _117  and  _118
REMARK   54  A    between atoms: _121  and  _123
REMARK   55  A    between atoms: _123  and  _124
REMARK   56  A    between atoms: _123  and  _126
REMARK   57  A    between atoms: _126  and  _127
REMARK   58  A    between atoms: _130  and  _132
REMARK   59  A    between atoms: _132  and  _133
REMARK   60  A    between atoms: _132  and  _135
REMARK   61  A    between atoms: _135  and  _136
REMARK   62  A    between atoms: _139  and  _141
REMARK   63  A    between atoms: _141  and  _142
REMARK   64  A    between atoms: _141  and  _144
REMARK   65  A    between atoms: _144  and  _145
REMARK   66  A    between atoms: _145  and  _146
REMARK   67  A    between atoms: _146  and  _147
REMARK   68  A    between atoms: _147  and  _148
REMARK   69  A    between atoms: _152  and  _154
REMARK   70  A    between atoms: _154  and  _155
REMARK   71  A    between atoms: _154  and  _157
REMARK   72  A    between atoms: _157  and  _158
REMARK   73  A    between atoms: _161  and  _163
REMARK   74  A    between atoms: _163  and  _164
REMARK   75  A    between atoms: _163  and  _166
REMARK   76  A    between atoms: _166  and  _167
REMARK   77  A    between atoms: _170  and  _172
REMARK   78  A    between atoms: _172  and  _173
REMARK   79  A    between atoms: _172  and  _175
REMARK   80  A    between atoms: _175  and  _176
REMARK   81  A    between atoms: _179  and  _181
REMARK   82  A    between atoms: _181  and  _182
REMARK   83  A    between atoms: _181  and  _184
REMARK   84  A    between atoms: _187  and  _189
REMARK   85  A    between atoms: _189  and  _190
REMARK   86  A    between atoms: _189  and  _192
REMARK   87  A    between atoms: _192  and  _193
REMARK   88  A    between atoms: _196  and  _198
REMARK   89  A    between atoms: _198  and  _199
REMARK   90  A    between atoms: _198  and  _201
REMARK   91  A    between atoms: _201  and  _202
REMARK   92  A    between atoms: _205  and  _207
REMARK   93  A    between atoms: _207  and  _208
REMARK   94  A    between atoms: _210  and  _212
REMARK   95  A    between atoms: _212  and  _213
REMARK   96  A    between atoms: _212  and  _215
REMARK   97  A    between atoms: _215  and  _216
REMARK   98  A    between atoms: _219  and  _221
REMARK   99  A    between atoms: _221  and  _222
REMARK  100  A    between atoms: _224  and  _226
REMARK  101  A    between atoms: _226  and  _227
REMARK  102  A    between atoms: _226  and  _229
REMARK  103  A    between atoms: _229  and  _230
REMARK  104  A    between atoms: _230  and  _231
REMARK  105  A    between atoms: _233  and  _235
REMARK  106  A    between atoms: _235  and  _236
REMARK  107  A    between atoms: _235  and  _238
REMARK  108  A    between atoms: _238  and  _239
REMARK  109  A    between atoms: _242  and  _244
REMARK  110  A    between atoms: _244  and  _245
REMARK  111  A    between atoms: _244  and  _247
REMARK  112  A    between atoms: _247  and  _248
REMARK  113  A    between atoms: _251  and  _253
REMARK  114  A    between atoms: _253  and  _254
REMARK  115  A    between atoms: _253  and  _256
REMARK  116  A    between atoms: _256  and  _257
REMARK  117  A    between atoms: _260  and  _262
REMARK  118  A    between atoms: _262  and  _263
REMARK  119  A    between atoms: _262  and  _265
REMARK  120  A    between atoms: _265  and  _266
REMARK  121  A    between atoms: _269  and  _271
REMARK  122  A    between atoms: _271  and  _272
REMARK  123  A    between atoms: _271  and  _274
REMARK  124  A    between atoms: _274  and  _275
REMARK  125  A    between atoms: _280  and  _282
REMARK  126  A    between atoms: _282  and  _283
REMARK  127  A    between atoms: _282  and  _285
REMARK  128  A    between atoms: _285  and  _286
REMARK  129  A    between atoms: _291  and  _293
REMARK  130  A    between atoms: _293  and  _294
REMARK  131  A    between atoms: _293  and  _296
REMARK  132  A    between atoms: _296  and  _297
REMARK  133  A    between atoms: _300  and  _302
REMARK  134  A    between atoms: _302  and  _303
REMARK  135  A    between atoms: _305  and  _307
REMARK  136  A    between atoms: _307  and  _308
REMARK  137  A    between atoms: _307  and  _310
REMARK  138  A    between atoms: _310  and  _311
REMARK  139  A    between atoms: _314  and  _316
REMARK  140  A    between atoms: _316  and  _317
REMARK  141  A    between atoms: _316  and  _319
REMARK  142  A    between atoms: _319  and  _320
REMARK  143  A    between atoms: _323  and  _325
REMARK  144  A    between atoms: _325  and  _326
REMARK  145  A    between atoms: _329  and  _331
REMARK  146  A    between atoms: _331  and  _332
REMARK  147  A    between atoms: _331  and  _334
REMARK  148  A    between atoms: _334  and  _335
REMARK  149  A    between atoms: _335  and  _336
REMARK  150  A    between atoms: _336  and  _337
REMARK  151  A    between atoms: _337  and  _338
REMARK  152  A    between atoms: _342  and  _344
REMARK  153  A    between atoms: _344  and  _345
REMARK  154  A    between atoms: _344  and  _347
REMARK  155  A    between atoms: _347  and  _348
REMARK  156  A    between atoms: _351  and  _353
REMARK  157  A    between atoms: _353  and  _354
REMARK  158  A    between atoms: _353  and  _356
REMARK  159  A    between atoms: _356  and  _357
REMARK  160  A    between atoms: _363  and  _365
REMARK  161  A    between atoms: _365  and  _366
REMARK  162  A    between atoms: _368  and  _370
REMARK  163  A    between atoms: _370  and  _371
REMARK  164  A    between atoms: _370  and  _373
REMARK  165  A    between atoms: _376  and  _378
REMARK  166  A    between atoms: _378  and  _379
REMARK  167  A    between atoms: _381  and  _383
REMARK  168  A    between atoms: _383  and  _384
REMARK  169  A    between atoms: _383  and  _386
REMARK  170  A    between atoms: _386  and  _387
REMARK  171  A    between atoms: _393  and  _395
REMARK  172  A    between atoms: _395  and  _396
REMARK  173  A    between atoms: _395  and  _398
REMARK  174  A    between atoms: _398  and  _399
REMARK  175  A    between atoms: _404  and  _405
REMARK  176  A    between atoms: _407  and  _409
REMARK  177  A    between atoms: _409  and  _410
REMARK  178  A    between atoms: _409  and  _412
REMARK  179  A    between atoms: _412  and  _413
REMARK  180  A    between atoms: _415  and  _417
REMARK  181  A    between atoms: _417  and  _418
REMARK  182  A    between atoms: _417  and  _420
REMARK  183  A    between atoms: _420  and  _421
REMARK  184  A    between atoms: _426  and  _427
REMARK  185  A    between atoms: _429  and  _431
REMARK  186  A    between atoms: _431  and  _432
REMARK  187  A    between atoms: _431  and  _434
REMARK  188  A    between atoms: _437  and  _439
REMARK  189  A    between atoms: _439  and  _440
REMARK  190  A    between atoms: _439  and  _442
REMARK  191  A    between atoms: _442  and  _443
REMARK  192  A    between atoms: _446  and  _448
REMARK  193  A    between atoms: _448  and  _449
REMARK  194  A    between atoms: _448  and  _451
REMARK  195  A    between atoms: _454  and  _456
REMARK  196  A    between atoms: _456  and  _457
REMARK  197  A    between atoms: _456  and  _459
REMARK  198  A    between atoms: _459  and  _460
REMARK  199  A    between atoms: _463  and  _465
REMARK  200  A    between atoms: _465  and  _466
REMARK  201  A    between atoms: _465  and  _468
REMARK  202  A    between atoms: _468  and  _469
REMARK  203  A    between atoms: _472  and  _474
REMARK  204  A    between atoms: _474  and  _475
REMARK  205  A    between atoms: _474  and  _477
REMARK  206  A    between atoms: _477  and  _478
REMARK  207  A    between atoms: _478  and  _479
REMARK  208  A    between atoms: _479  and  _480
REMARK  209  A    between atoms: _480  and  _481
REMARK  210  A    between atoms: _485  and  _487
REMARK  211  A    between atoms: _487  and  _488
REMARK  212  A    between atoms: _487  and  _490
REMARK  213  A    between atoms: _490  and  _491
REMARK  214  A    between atoms: _496  and  _498
REMARK  215  A    between atoms: _498  and  _499
REMARK  216  A    between atoms: _498  and  _501
REMARK  217  A    between atoms: _501  and  _502
REMARK  218  A    between atoms: _512  and  _514
REMARK  219  A    between atoms: _514  and  _515
REMARK  220  A    between atoms: _514  and  _517
REMARK  221  A    between atoms: _517  and  _518
REMARK  222  A    between atoms: _518  and  _519
REMARK  223  A    between atoms: _522  and  _524
REMARK  224  A    between atoms: _524  and  _525
REMARK  225  A    between atoms: _524  and  _527
REMARK  226  A    between atoms: _527  and  _528
REMARK  227  A    between atoms: _530  and  _532
REMARK  228  A    between atoms: _532  and  _533
REMARK  229  A    between atoms: _532  and  _535
REMARK  230  A    between atoms: _535  and  _536
REMARK  231  A    between atoms: _542  and  _544
REMARK  232  A    between atoms: _544  and  _545
REMARK  233  A    between atoms: _544  and  _547
REMARK  234  A    between atoms: _547  and  _548
REMARK  235  A    between atoms: _551  and  _553
REMARK  236  A    between atoms: _553  and  _554
REMARK  237  A    between atoms: _553  and  _556
REMARK  238  A    between atoms: _559  and  _561
REMARK  239  A    between atoms: _561  and  _562
REMARK  240  A    between atoms: _564  and  _566
REMARK  241  A    between atoms: _566  and  _567
REMARK  242  A    between atoms: _566  and  _569
REMARK  243  A    between atoms: _569  and  _570
REMARK  244  A    between atoms: _573  and  _575
REMARK  245  A    between atoms: _575  and  _576
REMARK  246  A    between atoms: _575  and  _578
REMARK  247  A    between atoms: _578  and  _579
REMARK  248  A    between atoms: _579  and  _580
REMARK  249  A    between atoms: _580  and  _581
REMARK  250  A    between atoms: _581  and  _582
REMARK  251  A    between atoms: _586  and  _588
REMARK  252  A    between atoms: _588  and  _589
REMARK  253  A    between atoms: _588  and  _591
REMARK                            x       y       z     vdW  Elec       q    Type
REMARK                         _______ _______ _______ _____ _____    ______ ____
ROOT
ATOM      1  O   HOH     1       9.605 -15.742 -27.290  0.00  0.00    +0.000 OA
ENDROOT
TORSDOF 0
REMARK  Name = ../refined-set-2016/3d0b/3d0b_pocket.pdb
REMARK  253 active torsions:
REMARK  status: ('A' for Active; 'I' for Inactive)
REMARK    1  A    between atoms: _1  and  _3
REMARK    2  A    between atoms: _3  and  _4
REMARK    3  A    between atoms: _3  and  _6
REMARK    4  A    between atoms: _6  and  _7
REMARK    5  A    between atoms: _13  and  _15
REMARK    6  A    between atoms: _15  and  _16
REMARK    7  A    between atoms: _15  and  _18
REMARK    8  A    between atoms: _18  and  _19
REMARK    9  A    between atoms: _19  and  _20
REMARK   10  A    between atoms: _25  and  _27
REMARK   11  A    between atoms: _27  and  _28
REMARK   12  A    between atoms: _27  and  _30
REMARK   13  A    between atoms: _30  and  _31
REMARK   14  A    between atoms: _34  and  _36
REMARK   15  A    between atoms: _36  and  _37
REMARK   16  A    between atoms: _36  and  _39
REMARK   17  A    between atoms: _39  and  _40
REMARK   18  A    between atoms: _40  and  _41
REMARK   19  A    between atoms: _43  and  _45
REMARK   20  A    between atoms: _45  and  _46
REMARK   21  A    between atoms: _45  and  _48
REMARK   22  A    between atoms: _48  and  _49
REMARK   23  A    between atoms: _49  and  _50
REMARK   24  A    between atoms: _53  and  _55
REMARK   25  A    between atoms: _55  and  _56
REMARK   26  A    between atoms: _55  and  _58
REMARK   27  A    between atoms: _58  and  _59
REMARK   28  A    between atoms: _62  and  _64
REMARK   29  A    between atoms: _64  and  _65
REMARK   30  A    between atoms: _64  and  _67
REMARK   31  A    between atoms: _67  and  _68
REMARK   32  A    between atoms: _71  and  _73
REMARK   33  A    between atoms: _73  and  _74
REMARK   34  A    between atoms: _73  and  _76
REMARK   35  A    between atoms: _76  and  _77
REMARK   36  A    between atoms: _79  and  _81
REMARK   37  A    between atoms: _81  and  _82
REMARK   38  A    between atoms: _81  and  _84
REMARK   39  A    between atoms: _84  and  _85
REMARK   40  A    between atoms: _90  and  _92
REMARK   41  A    between atoms: _92  and  _93
REMARK   42  A    between atoms: _92  and  _95
REMARK   43  A    between atoms: _95  and  _96
REMARK   44  A    between atoms: _98  and  _100
REMARK   45  A    between atoms: _100  and  _101
REMARK   46  A    between atoms: _100  and  _103
REMARK   47  A    between atoms: _103  and  _104
REMARK   48  A    between atoms: _106  and  _108
REMARK   49  A    between atoms: _108  and  _109
REMARK   50  A    between atoms: _108  and  _111
REMARK   51  A    between atoms: _111  and  _112
REMARK   52  A    between atoms: _115  and  _117
REMARK   53  A    between atoms: _117  and  _118
REMARK   54  A    between atoms: _121  and  _123
REMARK   55  A    between atoms: _123  and  _124
REMARK   56  A    between atoms: _123  and  _126
REMARK   57  A    between atoms: _126  and  _127
REMARK   58  A    between atoms: _130  and  _132
REMARK   59  A    between atoms: _132  and  _133
REMARK   60  A    between atoms: _132  and  _135
REMARK   61  A    between atoms: _135  and  _136
REMARK   62  A    between atoms: _139  and  _141
REMARK   63  A    between atoms: _141  and  _142
REMARK   64  A    between atoms: _141  and  _144
REMARK   65  A    between atoms: _144  and  _145
REMARK   66  A    between atoms: _145  and  _146
REMARK   67  A    between atoms: _146  and  _147
REMARK   68  A    between atoms: _147  and  _148
REMARK   69  A    between atoms: _152  and  _154
REMARK   70  A    between atoms: _154  and  _155
REMARK   71  A    between atoms: _154  and  _157
REMARK   72  A    between atoms: _157  and  _158
REMARK   73  A    between atoms: _161  and  _163
REMARK   74  A    between atoms: _163  and  _164
REMARK   75  A    between atoms: _163  and  _166
REMARK   76  A    between atoms: _166  and  _167
REMARK   77  A    between atoms: _170  and  _172
REMARK   78  A    between atoms: _172  and  _173
REMARK   79  A    between atoms: _172  and  _175
REMARK   80  A    between atoms: _175  and  _176
REMARK   81  A    between atoms: _179  and  _181
REMARK   82  A    between atoms: _181  and  _182
REMARK   83  A    between atoms: _181  and  _184
REMARK   84  A    between atoms: _187  and  _189
REMARK   85  A    between atoms: _189  and  _190
REMARK   86  A    between atoms: _189  and  _192
REMARK   87  A    between atoms: _192  and  _193
REMARK   88  A    between atoms: _196  and  _198
REMARK   89  A    between atoms: _198  and  _199
REMARK   90  A    between atoms: _198  and  _201
REMARK   91  A    between atoms: _201  and  _202
REMARK   92  A    between atoms: _205  and  _207
REMARK   93  A    between atoms: _207  and  _208
REMARK   94  A    between atoms: _210  and  _212
REMARK   95  A    between atoms: _212  and  _213
REMARK   96  A    between atoms: _212  and  _215
REMARK   97  A    between atoms: _215  and  _216
REMARK   98  A    between atoms: _219  and  _221
REMARK   99  A    between atoms: _221  and  _222
REMARK  100  A    between atoms: _224  and  _226
REMARK  101  A    between atoms: _226  and  _227
REMARK  102  A    between atoms: _226  and  _229
REMARK  103  A    between atoms: _229  and  _230
REMARK  104  A    between atoms: _230  and  _231
REMARK  105  A    between atoms: _233  and  _235
REMARK  106  A    between atoms: _235  and  _236
REMARK  107  A    between atoms: _235  and  _238
REMARK  108  A    between atoms: _238  and  _239
REMARK  109  A    between atoms: _242  and  _244
REMARK  110  A    between atoms: _244  and  _245
REMARK  111  A    between atoms: _244  and  _247
REMARK  112  A    between atoms: _247  and  _248
REMARK  113  A    between atoms: _251  and  _253
REMARK  114  A    between atoms: _253  and  _254
REMARK  115  A    between atoms: _253  and  _256
REMARK  116  A    between atoms: _256  and  _257
REMARK  117  A    between atoms: _260  and  _262
REMARK  118  A    between atoms: _262  and  _263
REMARK  119  A    between atoms: _262  and  _265
REMARK  120  A    between atoms: _265  and  _266
REMARK  121  A    between atoms: _269  and  _271
REMARK  122  A    between atoms: _271  and  _272
REMARK  123  A    between atoms: _271  and  _274
REMARK  124  A    between atoms: _274  and  _275
REMARK  125  A    between atoms: _280  and  _282
REMARK  126  A    between atoms: _282  and  _283
REMARK  127  A    between atoms: _282  and  _285
REMARK  128  A    between atoms: _285  and  _286
REMARK  129  A    between atoms: _291  and  _293
REMARK  130  A    between atoms: _293  and  _294
REMARK  131  A    between atoms: _293  and  _296
REMARK  132  A    between atoms: _296  and  _297
REMARK  133  A    between atoms: _300  and  _302
REMARK  134  A    between atoms: _302  and  _303
REMARK  135  A    between atoms: _305  and  _307
REMARK  136  A    between atoms: _307  and  _308
REMARK  137  A    between atoms: _307  and  _310
REMARK  138  A    between atoms: _310  and  _311
REMARK  139  A    between atoms: _314  and  _316
REMARK  140  A    between atoms: _316  and  _317
REMARK  141  A    between atoms: _316  and  _319
REMARK  142  A    between atoms: _319  and  _320
REMARK  143  A    between atoms: _323  and  _325
REMARK  144  A    between atoms: _325  and  _326
REMARK  145  A    between atoms: _329  and  _331
REMARK  146  A    between atoms: _331  and  _332
REMARK  147  A    between atoms: _331  and  _334
REMARK  148  A    between atoms: _334  and  _335
REMARK  149  A    between atoms: _335  and  _336
REMARK  150  A    between atoms: _336  and  _337
REMARK  151  A    between atoms: _337  and  _338
REMARK  152  A    between atoms: _342  and  _344
REMARK  153  A    between atoms: _344  and  _345
REMARK  154  A    between atoms: _344  and  _347
REMARK  155  A    between atoms: _347  and  _348
REMARK  156  A    between atoms: _351  and  _353
REMARK  157  A    between atoms: _353  and  _354
REMARK  158  A    between atoms: _353  and  _356
REMARK  159  A    between atoms: _356  and  _357
REMARK  160  A    between atoms: _363  and  _365
REMARK  161  A    between atoms: _365  and  _366
REMARK  162  A    between atoms: _368  and  _370
REMARK  163  A    between atoms: _370  and  _371
REMARK  164  A    between atoms: _370  and  _373
REMARK  165  A    between atoms: _376  and  _378
REMARK  166  A    between atoms: _378  and  _379
REMARK  167  A    between atoms: _381  and  _383
REMARK  168  A    between atoms: _383  and  _384
REMARK  169  A    between atoms: _383  and  _386
REMARK  170  A    between atoms: _386  and  _387
REMARK  171  A    between atoms: _393  and  _395
REMARK  172  A    between atoms: _395  and  _396
REMARK  173  A    between atoms: _395  and  _398
REMARK  174  A    between atoms: _398  and  _399
REMARK  175  A    between atoms: _404  and  _405
REMARK  176  A    between atoms: _407  and  _409
REMARK  177  A    between atoms: _409  and  _410
REMARK  178  A    between atoms: _409  and  _412
REMARK  179  A    between atoms: _412  and  _413
REMARK  180  A    between atoms: _415  and  _417
REMARK  181  A    between atoms: _417  and  _418
REMARK  182  A    between atoms: _417  and  _420
REMARK  183  A    between atoms: _420  and  _421
REMARK  184  A    between atoms: _426  and  _427
REMARK  185  A    between atoms: _429  and  _431
REMARK  186  A    between atoms: _431  and  _432
REMARK  187  A    between atoms: _431  and  _434
REMARK  188  A    between atoms: _437  and  _439
REMARK  189  A    between atoms: _439  and  _440
REMARK  190  A    between atoms: _439  and  _442
REMARK  191  A    between atoms: _442  and  _443
REMARK  192  A    between atoms: _446  and  _448
REMARK  193  A    between atoms: _448  and  _449
REMARK  194  A    between atoms: _448  and  _451
REMARK  195  A    between atoms: _454  and  _456
REMARK  196  A    between atoms: _456  and  _457
REMARK  197  A    between atoms: _456  and  _459
REMARK  198  A    between atoms: _459  and  _460
REMARK  199  A    between atoms: _463  and  _465
REMARK  200  A    between atoms: _465  and  _466
REMARK  201  A    between atoms: _465  and  _468
REMARK  202  A    between atoms: _468  and  _469
REMARK  203  A    between atoms: _472  and  _474
REMARK  204  A    between atoms: _474  and  _475
REMARK  205  A    between atoms: _474  and  _477
REMARK  206  A    between atoms: _477  and  _478
REMARK  207  A    between atoms: _478  and  _479
REMARK  208  A    between atoms: _479  and  _480
REMARK  209  A    between atoms: _480  and  _481
REMARK  210  A    between atoms: _485  and  _487
REMARK  211  A    between atoms: _487  and  _488
REMARK  212  A    between atoms: _487  and  _490
REMARK  213  A    between atoms: _490  and  _491
REMARK  214  A    between atoms: _496  and  _498
REMARK  215  A    between atoms: _498  and  _499
REMARK  216  A    between atoms: _498  and  _501
REMARK  217  A    between atoms: _501  and  _502
REMARK  218  A    between atoms: _512  and  _514
REMARK  219  A    between atoms: _514  and  _515
REMARK  220  A    between atoms: _514  and  _517
REMARK  221  A    between atoms: _517  and  _518
REMARK  222  A    between atoms: _518  and  _519
REMARK  223  A    between atoms: _522  and  _524
REMARK  224  A    between atoms: _524  and  _525
REMARK  225  A    between atoms: _524  and  _527
REMARK  226  A    between atoms: _527  and  _528
REMARK  227  A    between atoms: _530  and  _532
REMARK  228  A    between atoms: _532  and  _533
REMARK  229  A    between atoms: _532  and  _535
REMARK  230  A    between atoms: _535  and  _536
REMARK  231  A    between atoms: _542  and  _544
REMARK  232  A    between atoms: _544  and  _545
REMARK  233  A    between atoms: _544  and  _547
REMARK  234  A    between atoms: _547  and  _548
REMARK  235  A    between atoms: _551  and  _553
REMARK  236  A    between atoms: _553  and  _554
REMARK  237  A    between atoms: _553  and  _556
REMARK  238  A    between atoms: _559  and  _561
REMARK  239  A    between atoms: _561  and  _562
REMARK  240  A    between atoms: _564  and  _566
REMARK  241  A    between atoms: _566  and  _567
REMARK  242  A    between atoms: _566  and  _569
REMARK  243  A    between atoms: _569  and  _570
REMARK  244  A    between atoms: _573  and  _575
REMARK  245  A    between atoms: _575  and  _576
REMARK  246  A    between atoms: _575  and  _578
REMARK  247  A    between atoms: _578  and  _579
REMARK  248  A    between atoms: _579  and  _580
REMARK  249  A    between atoms: _580  and  _581
REMARK  250  A    between atoms: _581  and  _582
REMARK  251  A    between atoms: _586  and  _588
REMARK  252  A    between atoms: _588  and  _589
REMARK  253  A    between atoms: _588  and  _591
REMARK                            x       y       z     vdW  Elec       q    Type
REMARK                         _______ _______ _______ _____ _____    ______ ____
ROOT
ATOM      1  O   HOH     1      10.456 -14.096 -24.357  0.00  0.00    +0.000 OA
ENDROOT
TORSDOF 0
REMARK  Name = ../refined-set-2016/3d0b/3d0b_pocket.pdb
REMARK  253 active torsions:
REMARK  status: ('A' for Active; 'I' for Inactive)
REMARK    1  A    between atoms: _1  and  _3
REMARK    2  A    between atoms: _3  and  _4
REMARK    3  A    between atoms: _3  and  _6
REMARK    4  A    between atoms: _6  and  _7
REMARK    5  A    between atoms: _13  and  _15
REMARK    6  A    between atoms: _15  and  _16
REMARK    7  A    between atoms: _15  and  _18
REMARK    8  A    between atoms: _18  and  _19
REMARK    9  A    between atoms: _19  and  _20
REMARK   10  A    between atoms: _25  and  _27
REMARK   11  A    between atoms: _27  and  _28
REMARK   12  A    between atoms: _27  and  _30
REMARK   13  A    between atoms: _30  and  _31
REMARK   14  A    between atoms: _34  and  _36
REMARK   15  A    between atoms: _36  and  _37
REMARK   16  A    between atoms: _36  and  _39
REMARK   17  A    between atoms: _39  and  _40
REMARK   18  A    between atoms: _40  and  _41
REMARK   19  A    between atoms: _43  and  _45
REMARK   20  A    between atoms: _45  and  _46
REMARK   21  A    between atoms: _45  and  _48
REMARK   22  A    between atoms: _48  and  _49
REMARK   23  A    between atoms: _49  and  _50
REMARK   24  A    between atoms: _53  and  _55
REMARK   25  A    between atoms: _55  and  _56
REMARK   26  A    between atoms: _55  and  _58
REMARK   27  A    between atoms: _58  and  _59
REMARK   28  A    between atoms: _62  and  _64
REMARK   29  A    between atoms: _64  and  _65
REMARK   30  A    between atoms: _64  and  _67
REMARK   31  A    between atoms: _67  and  _68
REMARK   32  A    between atoms: _71  and  _73
REMARK   33  A    between atoms: _73  and  _74
REMARK   34  A    between atoms: _73  and  _76
REMARK   35  A    between atoms: _76  and  _77
REMARK   36  A    between atoms: _79  and  _81
REMARK   37  A    between atoms: _81  and  _82
REMARK   38  A    between atoms: _81  and  _84
REMARK   39  A    between atoms: _84  and  _85
REMARK   40  A    between atoms: _90  and  _92
REMARK   41  A    between atoms: _92  and  _93
REMARK   42  A    between atoms: _92  and  _95
REMARK   43  A    between atoms: _95  and  _96
REMARK   44  A    between atoms: _98  and  _100
REMARK   45  A    between atoms: _100  and  _101
REMARK   46  A    between atoms: _100  and  _103
REMARK   47  A    between atoms: _103  and  _104
REMARK   48  A    between atoms: _106  and  _108
REMARK   49  A    between atoms: _108  and  _109
REMARK   50  A    between atoms: _108  and  _111
REMARK   51  A    between atoms: _111  and  _112
REMARK   52  A    between atoms: _115  and  _117
REMARK   53  A    between atoms: _117  and  _118
REMARK   54  A    between atoms: _121  and  _123
REMARK   55  A    between atoms: _123  and  _124
REMARK   56  A    between atoms: _123  and  _126
REMARK   57  A    between atoms: _126  and  _127
REMARK   58  A    between atoms: _130  and  _132
REMARK   59  A    between atoms: _132  and  _133
REMARK   60  A    between atoms: _132  and  _135
REMARK   61  A    between atoms: _135  and  _136
REMARK   62  A    between atoms: _139  and  _141
REMARK   63  A    between atoms: _141  and  _142
REMARK   64  A    between atoms: _141  and  _144
REMARK   65  A    between atoms: _144  and  _145
REMARK   66  A    between atoms: _145  and  _146
REMARK   67  A    between atoms: _146  and  _147
REMARK   68  A    between atoms: _147  and  _148
REMARK   69  A    between atoms: _152  and  _154
REMARK   70  A    between atoms: _154  and  _155
REMARK   71  A    between atoms: _154  and  _157
REMARK   72  A    between atoms: _157  and  _158
REMARK   73  A    between atoms: _161  and  _163
REMARK   74  A    between atoms: _163  and  _164
REMARK   75  A    between atoms: _163  and  _166
REMARK   76  A    between atoms: _166  and  _167
REMARK   77  A    between atoms: _170  and  _172
REMARK   78  A    between atoms: _172  and  _173
REMARK   79  A    between atoms: _172  and  _175
REMARK   80  A    between atoms: _175  and  _176
REMARK   81  A    between atoms: _179  and  _181
REMARK   82  A    between atoms: _181  and  _182
REMARK   83  A    between atoms: _181  and  _184
REMARK   84  A    between atoms: _187  and  _189
REMARK   85  A    between atoms: _189  and  _190
REMARK   86  A    between atoms: _189  and  _192
REMARK   87  A    between atoms: _192  and  _193
REMARK   88  A    between atoms: _196  and  _198
REMARK   89  A    between atoms: _198  and  _199
REMARK   90  A    between atoms: _198  and  _201
REMARK   91  A    between atoms: _201  and  _202
REMARK   92  A    between atoms: _205  and  _207
REMARK   93  A    between atoms: _207  and  _208
REMARK   94  A    between atoms: _210  and  _212
REMARK   95  A    between atoms: _212  and  _213
REMARK   96  A    between atoms: _212  and  _215
REMARK   97  A    between atoms: _215  and  _216
REMARK   98  A    between atoms: _219  and  _221
REMARK   99  A    between atoms: _221  and  _222
REMARK  100  A    between atoms: _224  and  _226
REMARK  101  A    between atoms: _226  and  _227
REMARK  102  A    between atoms: _226  and  _229
REMARK  103  A    between atoms: _229  and  _230
REMARK  104  A    between atoms: _230  and  _231
REMARK  105  A    between atoms: _233  and  _235
REMARK  106  A    between atoms: _235  and  _236
REMARK  107  A    between atoms: _235  and  _238
REMARK  108  A    between atoms: _238  and  _239
REMARK  109  A    between atoms: _242  and  _244
REMARK  110  A    between atoms: _244  and  _245
REMARK  111  A    between atoms: _244  and  _247
REMARK  112  A    between atoms: _247  and  _248
REMARK  113  A    between atoms: _251  and  _253
REMARK  114  A    between atoms: _253  and  _254
REMARK  115  A    between atoms: _253  and  _256
REMARK  116  A    between atoms: _256  and  _257
REMARK  117  A    between atoms: _260  and  _262
REMARK  118  A    between atoms: _262  and  _263
REMARK  119  A    between atoms: _262  and  _265
REMARK  120  A    between atoms: _265  and  _266
REMARK  121  A    between atoms: _269  and  _271
REMARK  122  A    between atoms: _271  and  _272
REMARK  123  A    between atoms: _271  and  _274
REMARK  124  A    between atoms: _274  and  _275
REMARK  125  A    between atoms: _280  and  _282
REMARK  126  A    between atoms: _282  and  _283
REMARK  127  A    between atoms: _282  and  _285
REMARK  128  A    between atoms: _285  and  _286
REMARK  129  A    between atoms: _291  and  _293
REMARK  130  A    between atoms: _293  and  _294
REMARK  131  A    between atoms: _293  and  _296
REMARK  132  A    between atoms: _296  and  _297
REMARK  133  A    between atoms: _300  and  _302
REMARK  134  A    between atoms: _302  and  _303
REMARK  135  A    between atoms: _305  and  _307
REMARK  136  A    between atoms: _307  and  _308
REMARK  137  A    between atoms: _307  and  _310
REMARK  138  A    between atoms: _310  and  _311
REMARK  139  A    between atoms: _314  and  _316
REMARK  140  A    between atoms: _316  and  _317
REMARK  141  A    between atoms: _316  and  _319
REMARK  142  A    between atoms: _319  and  _320
REMARK  143  A    between atoms: _323  and  _325
REMARK  144  A    between atoms: _325  and  _326
REMARK  145  A    between atoms: _329  and  _331
REMARK  146  A    between atoms: _331  and  _332
REMARK  147  A    between atoms: _331  and  _334
REMARK  148  A    between atoms: _334  and  _335
REMARK  149  A    between atoms: _335  and  _336
REMARK  150  A    between atoms: _336  and  _337
REMARK  151  A    between atoms: _337  and  _338
REMARK  152  A    between atoms: _342  and  _344
REMARK  153  A    between atoms: _344  and  _345
REMARK  154  A    between atoms: _344  and  _347
REMARK  155  A    between atoms: _347  and  _348
REMARK  156  A    between atoms: _351  and  _353
REMARK  157  A    between atoms: _353  and  _354
REMARK  158  A    between atoms: _353  and  _356
REMARK  159  A    between atoms: _356  and  _357
REMARK  160  A    between atoms: _363  and  _365
REMARK  161  A    between atoms: _365  and  _366
REMARK  162  A    between atoms: _368  and  _370
REMARK  163  A    between atoms: _370  and  _371
REMARK  164  A    between atoms: _370  and  _373
REMARK  165  A    between atoms: _376  and  _378
REMARK  166  A    between atoms: _378  and  _379
REMARK  167  A    between atoms: _381  and  _383
REMARK  168  A    between atoms: _383  and  _384
REMARK  169  A    between atoms: _383  and  _386
REMARK  170  A    between atoms: _386  and  _387
REMARK  171  A    between atoms: _393  and  _395
REMARK  172  A    between atoms: _395  and  _396
REMARK  173  A    between atoms: _395  and  _398
REMARK  174  A    between atoms: _398  and  _399
REMARK  175  A    between atoms: _404  and  _405
REMARK  176  A    between atoms: _407  and  _409
REMARK  177  A    between atoms: _409  and  _410
REMARK  178  A    between atoms: _409  and  _412
REMARK  179  A    between atoms: _412  and  _413
REMARK  180  A    between atoms: _415  and  _417
REMARK  181  A    between atoms: _417  and  _418
REMARK  182  A    between atoms: _417  and  _420
REMARK  183  A    between atoms: _420  and  _421
REMARK  184  A    between atoms: _426  and  _427
REMARK  185  A    between atoms: _429  and  _431
REMARK  186  A    between atoms: _431  and  _432
REMARK  187  A    between atoms: _431  and  _434
REMARK  188  A    between atoms: _437  and  _439
REMARK  189  A    between atoms: _439  and  _440
REMARK  190  A    between atoms: _439  and  _442
REMARK  191  A    between atoms: _442  and  _443
REMARK  192  A    between atoms: _446  and  _448
REMARK  193  A    between atoms: _448  and  _449
REMARK  194  A    between atoms: _448  and  _451
REMARK  195  A    between atoms: _454  and  _456
REMARK  196  A    between atoms: _456  and  _457
REMARK  197  A    between atoms: _456  and  _459
REMARK  198  A    between atoms: _459  and  _460
REMARK  199  A    between atoms: _463  and  _465
REMARK  200  A    between atoms: _465  and  _466
REMARK  201  A    between atoms: _465  and  _468
REMARK  202  A    between atoms: _468  and  _469
REMARK  203  A    between atoms: _472  and  _474
REMARK  204  A    between atoms: _474  and  _475
REMARK  205  A    between atoms: _474  and  _477
REMARK  206  A    between atoms: _477  and  _478
REMARK  207  A    between atoms: _478  and  _479
REMARK  208  A    between atoms: _479  and  _480
REMARK  209  A    between atoms: _480  and  _481
REMARK  210  A    between atoms: _485  and  _487
REMARK  211  A    between atoms: _487  and  _488
REMARK  212  A    between atoms: _487  and  _490
REMARK  213  A    between atoms: _490  and  _491
REMARK  214  A    between atoms: _496  and  _498
REMARK  215  A    between atoms: _498  and  _499
REMARK  216  A    between atoms: _498  and  _501
REMARK  217  A    between atoms: _501  and  _502
REMARK  218  A    between atoms: _512  and  _514
REMARK  219  A    between atoms: _514  and  _515
REMARK  220  A    between atoms: _514  and  _517
REMARK  221  A    between atoms: _517  and  _518
REMARK  222  A    between atoms: _518  and  _519
REMARK  223  A    between atoms: _522  and  _524
REMARK  224  A    between atoms: _524  and  _525
REMARK  225  A    between atoms: _524  and  _527
REMARK  226  A    between atoms: _527  and  _528
REMARK  227  A    between atoms: _530  and  _532
REMARK  228  A    between atoms: _532  and  _533
REMARK  229  A    between atoms: _532  and  _535
REMARK  230  A    between atoms: _535  and  _536
REMARK  231  A    between atoms: _542  and  _544
REMARK  232  A    between atoms: _544  and  _545
REMARK  233  A    between atoms: _544  and  _547
REMARK  234  A    between atoms: _547  and  _548
REMARK  235  A    between atoms: _551  and  _553
REMARK  236  A    between atoms: _553  and  _554
REMARK  237  A    between atoms: _553  and  _556
REMARK  238  A    between atoms: _559  and  _561
REMARK  239  A    between atoms: _561  and  _562
REMARK  240  A    between atoms: _564  and  _566
REMARK  241  A    between atoms: _566  and  _567
REMARK  242  A    between atoms: _566  and  _569
REMARK  243  A    between atoms: _569  and  _570
REMARK  244  A    between atoms: _573  and  _575
REMARK  245  A    between atoms: _575  and  _576
REMARK  246  A    between atoms: _575  and  _578
REMARK  247  A    between atoms: _578  and  _579
REMARK  248  A    between atoms: _579  and  _580
REMARK  249  A    between atoms: _580  and  _581
REMARK  250  A    between atoms: _581  and  _582
REMARK  251  A    between atoms: _586  and  _588
REMARK  252  A    between atoms: _588  and  _589
REMARK  253  A    between atoms: _588  and  _591
REMARK                            x       y       z     vdW  Elec       q    Type
REMARK                         _______ _______ _______ _____ _____    ______ ____
ROOT
ATOM      1  O   HOH     1       3.882  -6.509 -24.599  0.00  0.00    +0.000 OA
ENDROOT
TORSDOF 0
REMARK  Name = ../refined-set-2016/3d0b/3d0b_pocket.pdb
REMARK  253 active torsions:
REMARK  status: ('A' for Active; 'I' for Inactive)
REMARK    1  A    between atoms: _1  and  _3
REMARK    2  A    between atoms: _3  and  _4
REMARK    3  A    between atoms: _3  and  _6
REMARK    4  A    between atoms: _6  and  _7
REMARK    5  A    between atoms: _13  and  _15
REMARK    6  A    between atoms: _15  and  _16
REMARK    7  A    between atoms: _15  and  _18
REMARK    8  A    between atoms: _18  and  _19
REMARK    9  A    between atoms: _19  and  _20
REMARK   10  A    between atoms: _25  and  _27
REMARK   11  A    between atoms: _27  and  _28
REMARK   12  A    between atoms: _27  and  _30
REMARK   13  A    between atoms: _30  and  _31
REMARK   14  A    between atoms: _34  and  _36
REMARK   15  A    between atoms: _36  and  _37
REMARK   16  A    between atoms: _36  and  _39
REMARK   17  A    between atoms: _39  and  _40
REMARK   18  A    between atoms: _40  and  _41
REMARK   19  A    between atoms: _43  and  _45
REMARK   20  A    between atoms: _45  and  _46
REMARK   21  A    between atoms: _45  and  _48
REMARK   22  A    between atoms: _48  and  _49
REMARK   23  A    between atoms: _49  and  _50
REMARK   24  A    between atoms: _53  and  _55
REMARK   25  A    between atoms: _55  and  _56
REMARK   26  A    between atoms: _55  and  _58
REMARK   27  A    between atoms: _58  and  _59
REMARK   28  A    between atoms: _62  and  _64
REMARK   29  A    between atoms: _64  and  _65
REMARK   30  A    between atoms: _64  and  _67
REMARK   31  A    between atoms: _67  and  _68
REMARK   32  A    between atoms: _71  and  _73
REMARK   33  A    between atoms: _73  and  _74
REMARK   34  A    between atoms: _73  and  _76
REMARK   35  A    between atoms: _76  and  _77
REMARK   36  A    between atoms: _79  and  _81
REMARK   37  A    between atoms: _81  and  _82
REMARK   38  A    between atoms: _81  and  _84
REMARK   39  A    between atoms: _84  and  _85
REMARK   40  A    between atoms: _90  and  _92
REMARK   41  A    between atoms: _92  and  _93
REMARK   42  A    between atoms: _92  and  _95
REMARK   43  A    between atoms: _95  and  _96
REMARK   44  A    between atoms: _98  and  _100
REMARK   45  A    between atoms: _100  and  _101
REMARK   46  A    between atoms: _100  and  _103
REMARK   47  A    between atoms: _103  and  _104
REMARK   48  A    between atoms: _106  and  _108
REMARK   49  A    between atoms: _108  and  _109
REMARK   50  A    between atoms: _108  and  _111
REMARK   51  A    between atoms: _111  and  _112
REMARK   52  A    between atoms: _115  and  _117
REMARK   53  A    between atoms: _117  and  _118
REMARK   54  A    between atoms: _121  and  _123
REMARK   55  A    between atoms: _123  and  _124
REMARK   56  A    between atoms: _123  and  _126
REMARK   57  A    between atoms: _126  and  _127
REMARK   58  A    between atoms: _130  and  _132
REMARK   59  A    between atoms: _132  and  _133
REMARK   60  A    between atoms: _132  and  _135
REMARK   61  A    between atoms: _135  and  _136
REMARK   62  A    between atoms: _139  and  _141
REMARK   63  A    between atoms: _141  and  _142
REMARK   64  A    between atoms: _141  and  _144
REMARK   65  A    between atoms: _144  and  _145
REMARK   66  A    between atoms: _145  and  _146
REMARK   67  A    between atoms: _146  and  _147
REMARK   68  A    between atoms: _147  and  _148
REMARK   69  A    between atoms: _152  and  _154
REMARK   70  A    between atoms: _154  and  _155
REMARK   71  A    between atoms: _154  and  _157
REMARK   72  A    between atoms: _157  and  _158
REMARK   73  A    between atoms: _161  and  _163
REMARK   74  A    between atoms: _163  and  _164
REMARK   75  A    between atoms: _163  and  _166
REMARK   76  A    between atoms: _166  and  _167
REMARK   77  A    between atoms: _170  and  _172
REMARK   78  A    between atoms: _172  and  _173
REMARK   79  A    between atoms: _172  and  _175
REMARK   80  A    between atoms: _175  and  _176
REMARK   81  A    between atoms: _179  and  _181
REMARK   82  A    between atoms: _181  and  _182
REMARK   83  A    between atoms: _181  and  _184
REMARK   84  A    between atoms: _187  and  _189
REMARK   85  A    between atoms: _189  and  _190
REMARK   86  A    between atoms: _189  and  _192
REMARK   87  A    between atoms: _192  and  _193
REMARK   88  A    between atoms: _196  and  _198
REMARK   89  A    between atoms: _198  and  _199
REMARK   90  A    between atoms: _198  and  _201
REMARK   91  A    between atoms: _201  and  _202
REMARK   92  A    between atoms: _205  and  _207
REMARK   93  A    between atoms: _207  and  _208
REMARK   94  A    between atoms: _210  and  _212
REMARK   95  A    between atoms: _212  and  _213
REMARK   96  A    between atoms: _212  and  _215
REMARK   97  A    between atoms: _215  and  _216
REMARK   98  A    between atoms: _219  and  _221
REMARK   99  A    between atoms: _221  and  _222
REMARK  100  A    between atoms: _224  and  _226
REMARK  101  A    between atoms: _226  and  _227
REMARK  102  A    between atoms: _226  and  _229
REMARK  103  A    between atoms: _229  and  _230
REMARK  104  A    between atoms: _230  and  _231
REMARK  105  A    between atoms: _233  and  _235
REMARK  106  A    between atoms: _235  and  _236
REMARK  107  A    between atoms: _235  and  _238
REMARK  108  A    between atoms: _238  and  _239
REMARK  109  A    between atoms: _242  and  _244
REMARK  110  A    between atoms: _244  and  _245
REMARK  111  A    between atoms: _244  and  _247
REMARK  112  A    between atoms: _247  and  _248
REMARK  113  A    between atoms: _251  and  _253
REMARK  114  A    between atoms: _253  and  _254
REMARK  115  A    between atoms: _253  and  _256
REMARK  116  A    between atoms: _256  and  _257
REMARK  117  A    between atoms: _260  and  _262
REMARK  118  A    between atoms: _262  and  _263
REMARK  119  A    between atoms: _262  and  _265
REMARK  120  A    between atoms: _265  and  _266
REMARK  121  A    between atoms: _269  and  _271
REMARK  122  A    between atoms: _271  and  _272
REMARK  123  A    between atoms: _271  and  _274
REMARK  124  A    between atoms: _274  and  _275
REMARK  125  A    between atoms: _280  and  _282
REMARK  126  A    between atoms: _282  and  _283
REMARK  127  A    between atoms: _282  and  _285
REMARK  128  A    between atoms: _285  and  _286
REMARK  129  A    between atoms: _291  and  _293
REMARK  130  A    between atoms: _293  and  _294
REMARK  131  A    between atoms: _293  and  _296
REMARK  132  A    between atoms: _296  and  _297
REMARK  133  A    between atoms: _300  and  _302
REMARK  134  A    between atoms: _302  and  _303
REMARK  135  A    between atoms: _305  and  _307
REMARK  136  A    between atoms: _307  and  _308
REMARK  137  A    between atoms: _307  and  _310
REMARK  138  A    between atoms: _310  and  _311
REMARK  139  A    between atoms: _314  and  _316
REMARK  140  A    between atoms: _316  and  _317
REMARK  141  A    between atoms: _316  and  _319
REMARK  142  A    between atoms: _319  and  _320
REMARK  143  A    between atoms: _323  and  _325
REMARK  144  A    between atoms: _325  and  _326
REMARK  145  A    between atoms: _329  and  _331
REMARK  146  A    between atoms: _331  and  _332
REMARK  147  A    between atoms: _331  and  _334
REMARK  148  A    between atoms: _334  and  _335
REMARK  149  A    between atoms: _335  and  _336
REMARK  150  A    between atoms: _336  and  _337
REMARK  151  A    between atoms: _337  and  _338
REMARK  152  A    between atoms: _342  and  _344
REMARK  153  A    between atoms: _344  and  _345
REMARK  154  A    between atoms: _344  and  _347
REMARK  155  A    between atoms: _347  and  _348
REMARK  156  A    between atoms: _351  and  _353
REMARK  157  A    between atoms: _353  and  _354
REMARK  158  A    between atoms: _353  and  _356
REMARK  159  A    between atoms: _356  and  _357
REMARK  160  A    between atoms: _363  and  _365
REMARK  161  A    between atoms: _365  and  _366
REMARK  162  A    between atoms: _368  and  _370
REMARK  163  A    between atoms: _370  and  _371
REMARK  164  A    between atoms: _370  and  _373
REMARK  165  A    between atoms: _376  and  _378
REMARK  166  A    between atoms: _378  and  _379
REMARK  167  A    between atoms: _381  and  _383
REMARK  168  A    between atoms: _383  and  _384
REMARK  169  A    between atoms: _383  and  _386
REMARK  170  A    between atoms: _386  and  _387
REMARK  171  A    between atoms: _393  and  _395
REMARK  172  A    between atoms: _395  and  _396
REMARK  173  A    between atoms: _395  and  _398
REMARK  174  A    between atoms: _398  and  _399
REMARK  175  A    between atoms: _404  and  _405
REMARK  176  A    between atoms: _407  and  _409
REMARK  177  A    between atoms: _409  and  _410
REMARK  178  A    between atoms: _409  and  _412
REMARK  179  A    between atoms: _412  and  _413
REMARK  180  A    between atoms: _415  and  _417
REMARK  181  A    between atoms: _417  and  _418
REMARK  182  A    between atoms: _417  and  _420
REMARK  183  A    between atoms: _420  and  _421
REMARK  184  A    between atoms: _426  and  _427
REMARK  185  A    between atoms: _429  and  _431
REMARK  186  A    between atoms: _431  and  _432
REMARK  187  A    between atoms: _431  and  _434
REMARK  188  A    between atoms: _437  and  _439
REMARK  189  A    between atoms: _439  and  _440
REMARK  190  A    between atoms: _439  and  _442
REMARK  191  A    between atoms: _442  and  _443
REMARK  192  A    between atoms: _446  and  _448
REMARK  193  A    between atoms: _448  and  _449
REMARK  194  A    between atoms: _448  and  _451
REMARK  195  A    between atoms: _454  and  _456
REMARK  196  A    between atoms: _456  and  _457
REMARK  197  A    between atoms: _456  and  _459
REMARK  198  A    between atoms: _459  and  _460
REMARK  199  A    between atoms: _463  and  _465
REMARK  200  A    between atoms: _465  and  _466
REMARK  201  A    between atoms: _465  and  _468
REMARK  202  A    between atoms: _468  and  _469
REMARK  203  A    between atoms: _472  and  _474
REMARK  204  A    between atoms: _474  and  _475
REMARK  205  A    between atoms: _474  and  _477
REMARK  206  A    between atoms: _477  and  _478
REMARK  207  A    between atoms: _478  and  _479
REMARK  208  A    between atoms: _479  and  _480
REMARK  209  A    between atoms: _480  and  _481
REMARK  210  A    between atoms: _485  and  _487
REMARK  211  A    between atoms: _487  and  _488
REMARK  212  A    between atoms: _487  and  _490
REMARK  213  A    between atoms: _490  and  _491
REMARK  214  A    between atoms: _496  and  _498
REMARK  215  A    between atoms: _498  and  _499
REMARK  216  A    between atoms: _498  and  _501
REMARK  217  A    between atoms: _501  and  _502
REMARK  218  A    between atoms: _512  and  _514
REMARK  219  A    between atoms: _514  and  _515
REMARK  220  A    between atoms: _514  and  _517
REMARK  221  A    between atoms: _517  and  _518
REMARK  222  A    between atoms: _518  and  _519
REMARK  223  A    between atoms: _522  and  _524
REMARK  224  A    between atoms: _524  and  _525
REMARK  225  A    between atoms: _524  and  _527
REMARK  226  A    between atoms: _527  and  _528
REMARK  227  A    between atoms: _530  and  _532
REMARK  228  A    between atoms: _532  and  _533
REMARK  229  A    between atoms: _532  and  _535
REMARK  230  A    between atoms: _535  and  _536
REMARK  231  A    between atoms: _542  and  _544
REMARK  232  A    between atoms: _544  and  _545
REMARK  233  A    between atoms: _544  and  _547
REMARK  234  A    between atoms: _547  and  _548
REMARK  235  A    between atoms: _551  and  _553
REMARK  236  A    between atoms: _553  and  _554
REMARK  237  A    between atoms: _553  and  _556
REMARK  238  A    between atoms: _559  and  _561
REMARK  239  A    between atoms: _561  and  _562
REMARK  240  A    between atoms: _564  and  _566
REMARK  241  A    between atoms: _566  and  _567
REMARK  242  A    between atoms: _566  and  _569
REMARK  243  A    between atoms: _569  and  _570
REMARK  244  A    between atoms: _573  and  _575
REMARK  245  A    between atoms: _575  and  _576
REMARK  246  A    between atoms: _575  and  _578
REMARK  247  A    between atoms: _578  and  _579
REMARK  248  A    between atoms: _579  and  _580
REMARK  249  A    between atoms: _580  and  _581
REMARK  250  A    between atoms: _581  and  _582
REMARK  251  A    between atoms: _586  and  _588
REMARK  252  A    between atoms: _588  and  _589
REMARK  253  A    between atoms: _588  and  _591
REMARK                            x       y       z     vdW  Elec       q    Type
REMARK                         _______ _______ _______ _____ _____    ______ ____
ROOT
ATOM      1  O   HOH     1       4.195  -7.007 -21.949  0.00  0.00    +0.000 OA
ENDROOT
TORSDOF 0
REMARK  Name = ../refined-set-2016/3d0b/3d0b_pocket.pdb
REMARK  253 active torsions:
REMARK  status: ('A' for Active; 'I' for Inactive)
REMARK    1  A    between atoms: _1  and  _3
REMARK    2  A    between atoms: _3  and  _4
REMARK    3  A    between atoms: _3  and  _6
REMARK    4  A    between atoms: _6  and  _7
REMARK    5  A    between atoms: _13  and  _15
REMARK    6  A    between atoms: _15  and  _16
REMARK    7  A    between atoms: _15  and  _18
REMARK    8  A    between atoms: _18  and  _19
REMARK    9  A    between atoms: _19  and  _20
REMARK   10  A    between atoms: _25  and  _27
REMARK   11  A    between atoms: _27  and  _28
REMARK   12  A    between atoms: _27  and  _30
REMARK   13  A    between atoms: _30  and  _31
REMARK   14  A    between atoms: _34  and  _36
REMARK   15  A    between atoms: _36  and  _37
REMARK   16  A    between atoms: _36  and  _39
REMARK   17  A    between atoms: _39  and  _40
REMARK   18  A    between atoms: _40  and  _41
REMARK   19  A    between atoms: _43  and  _45
REMARK   20  A    between atoms: _45  and  _46
REMARK   21  A    between atoms: _45  and  _48
REMARK   22  A    between atoms: _48  and  _49
REMARK   23  A    between atoms: _49  and  _50
REMARK   24  A    between atoms: _53  and  _55
REMARK   25  A    between atoms: _55  and  _56
REMARK   26  A    between atoms: _55  and  _58
REMARK   27  A    between atoms: _58  and  _59
REMARK   28  A    between atoms: _62  and  _64
REMARK   29  A    between atoms: _64  and  _65
REMARK   30  A    between atoms: _64  and  _67
REMARK   31  A    between atoms: _67  and  _68
REMARK   32  A    between atoms: _71  and  _73
REMARK   33  A    between atoms: _73  and  _74
REMARK   34  A    between atoms: _73  and  _76
REMARK   35  A    between atoms: _76  and  _77
REMARK   36  A    between atoms: _79  and  _81
REMARK   37  A    between atoms: _81  and  _82
REMARK   38  A    between atoms: _81  and  _84
REMARK   39  A    between atoms: _84  and  _85
REMARK   40  A    between atoms: _90  and  _92
REMARK   41  A    between atoms: _92  and  _93
REMARK   42  A    between atoms: _92  and  _95
REMARK   43  A    between atoms: _95  and  _96
REMARK   44  A    between atoms: _98  and  _100
REMARK   45  A    between atoms: _100  and  _101
REMARK   46  A    between atoms: _100  and  _103
REMARK   47  A    between atoms: _103  and  _104
REMARK   48  A    between atoms: _106  and  _108
REMARK   49  A    between atoms: _108  and  _109
REMARK   50  A    between atoms: _108  and  _111
REMARK   51  A    between atoms: _111  and  _112
REMARK   52  A    between atoms: _115  and  _117
REMARK   53  A    between atoms: _117  and  _118
REMARK   54  A    between atoms: _121  and  _123
REMARK   55  A    between atoms: _123  and  _124
REMARK   56  A    between atoms: _123  and  _126
REMARK   57  A    between atoms: _126  and  _127
REMARK   58  A    between atoms: _130  and  _132
REMARK   59  A    between atoms: _132  and  _133
REMARK   60  A    between atoms: _132  and  _135
REMARK   61  A    between atoms: _135  and  _136
REMARK   62  A    between atoms: _139  and  _141
REMARK   63  A    between atoms: _141  and  _142
REMARK   64  A    between atoms: _141  and  _144
REMARK   65  A    between atoms: _144  and  _145
REMARK   66  A    between atoms: _145  and  _146
REMARK   67  A    between atoms: _146  and  _147
REMARK   68  A    between atoms: _147  and  _148
REMARK   69  A    between atoms: _152  and  _154
REMARK   70  A    between atoms: _154  and  _155
REMARK   71  A    between atoms: _154  and  _157
REMARK   72  A    between atoms: _157  and  _158
REMARK   73  A    between atoms: _161  and  _163
REMARK   74  A    between atoms: _163  and  _164
REMARK   75  A    between atoms: _163  and  _166
REMARK   76  A    between atoms: _166  and  _167
REMARK   77  A    between atoms: _170  and  _172
REMARK   78  A    between atoms: _172  and  _173
REMARK   79  A    between atoms: _172  and  _175
REMARK   80  A    between atoms: _175  and  _176
REMARK   81  A    between atoms: _179  and  _181
REMARK   82  A    between atoms: _181  and  _182
REMARK   83  A    between atoms: _181  and  _184
REMARK   84  A    between atoms: _187  and  _189
REMARK   85  A    between atoms: _189  and  _190
REMARK   86  A    between atoms: _189  and  _192
REMARK   87  A    between atoms: _192  and  _193
REMARK   88  A    between atoms: _196  and  _198
REMARK   89  A    between atoms: _198  and  _199
REMARK   90  A    between atoms: _198  and  _201
REMARK   91  A    between atoms: _201  and  _202
REMARK   92  A    between atoms: _205  and  _207
REMARK   93  A    between atoms: _207  and  _208
REMARK   94  A    between atoms: _210  and  _212
REMARK   95  A    between atoms: _212  and  _213
REMARK   96  A    between atoms: _212  and  _215
REMARK   97  A    between atoms: _215  and  _216
REMARK   98  A    between atoms: _219  and  _221
REMARK   99  A    between atoms: _221  and  _222
REMARK  100  A    between atoms: _224  and  _226
REMARK  101  A    between atoms: _226  and  _227
REMARK  102  A    between atoms: _226  and  _229
REMARK  103  A    between atoms: _229  and  _230
REMARK  104  A    between atoms: _230  and  _231
REMARK  105  A    between atoms: _233  and  _235
REMARK  106  A    between atoms: _235  and  _236
REMARK  107  A    between atoms: _235  and  _238
REMARK  108  A    between atoms: _238  and  _239
REMARK  109  A    between atoms: _242  and  _244
REMARK  110  A    between atoms: _244  and  _245
REMARK  111  A    between atoms: _244  and  _247
REMARK  112  A    between atoms: _247  and  _248
REMARK  113  A    between atoms: _251  and  _253
REMARK  114  A    between atoms: _253  and  _254
REMARK  115  A    between atoms: _253  and  _256
REMARK  116  A    between atoms: _256  and  _257
REMARK  117  A    between atoms: _260  and  _262
REMARK  118  A    between atoms: _262  and  _263
REMARK  119  A    between atoms: _262  and  _265
REMARK  120  A    between atoms: _265  and  _266
REMARK  121  A    between atoms: _269  and  _271
REMARK  122  A    between atoms: _271  and  _272
REMARK  123  A    between atoms: _271  and  _274
REMARK  124  A    between atoms: _274  and  _275
REMARK  125  A    between atoms: _280  and  _282
REMARK  126  A    between atoms: _282  and  _283
REMARK  127  A    between atoms: _282  and  _285
REMARK  128  A    between atoms: _285  and  _286
REMARK  129  A    between atoms: _291  and  _293
REMARK  130  A    between atoms: _293  and  _294
REMARK  131  A    between atoms: _293  and  _296
REMARK  132  A    between atoms: _296  and  _297
REMARK  133  A    between atoms: _300  and  _302
REMARK  134  A    between atoms: _302  and  _303
REMARK  135  A    between atoms: _305  and  _307
REMARK  136  A    between atoms: _307  and  _308
REMARK  137  A    between atoms: _307  and  _310
REMARK  138  A    between atoms: _310  and  _311
REMARK  139  A    between atoms: _314  and  _316
REMARK  140  A    between atoms: _316  and  _317
REMARK  141  A    between atoms: _316  and  _319
REMARK  142  A    between atoms: _319  and  _320
REMARK  143  A    between atoms: _323  and  _325
REMARK  144  A    between atoms: _325  and  _326
REMARK  145  A    between atoms: _329  and  _331
REMARK  146  A    between atoms: _331  and  _332
REMARK  147  A    between atoms: _331  and  _334
REMARK  148  A    between atoms: _334  and  _335
REMARK  149  A    between atoms: _335  and  _336
REMARK  150  A    between atoms: _336  and  _337
REMARK  151  A    between atoms: _337  and  _338
REMARK  152  A    between atoms: _342  and  _344
REMARK  153  A    between atoms: _344  and  _345
REMARK  154  A    between atoms: _344  and  _347
REMARK  155  A    between atoms: _347  and  _348
REMARK  156  A    between atoms: _351  and  _353
REMARK  157  A    between atoms: _353  and  _354
REMARK  158  A    between atoms: _353  and  _356
REMARK  159  A    between atoms: _356  and  _357
REMARK  160  A    between atoms: _363  and  _365
REMARK  161  A    between atoms: _365  and  _366
REMARK  162  A    between atoms: _368  and  _370
REMARK  163  A    between atoms: _370  and  _371
REMARK  164  A    between atoms: _370  and  _373
REMARK  165  A    between atoms: _376  and  _378
REMARK  166  A    between atoms: _378  and  _379
REMARK  167  A    between atoms: _381  and  _383
REMARK  168  A    between atoms: _383  and  _384
REMARK  169  A    between atoms: _383  and  _386
REMARK  170  A    between atoms: _386  and  _387
REMARK  171  A    between atoms: _393  and  _395
REMARK  172  A    between atoms: _395  and  _396
REMARK  173  A    between atoms: _395  and  _398
REMARK  174  A    between atoms: _398  and  _399
REMARK  175  A    between atoms: _404  and  _405
REMARK  176  A    between atoms: _407  and  _409
REMARK  177  A    between atoms: _409  and  _410
REMARK  178  A    between atoms: _409  and  _412
REMARK  179  A    between atoms: _412  and  _413
REMARK  180  A    between atoms: _415  and  _417
REMARK  181  A    between atoms: _417  and  _418
REMARK  182  A    between atoms: _417  and  _420
REMARK  183  A    between atoms: _420  and  _421
REMARK  184  A    between atoms: _426  and  _427
REMARK  185  A    between atoms: _429  and  _431
REMARK  186  A    between atoms: _431  and  _432
REMARK  187  A    between atoms: _431  and  _434
REMARK  188  A    between atoms: _437  and  _439
REMARK  189  A    between atoms: _439  and  _440
REMARK  190  A    between atoms: _439  and  _442
REMARK  191  A    between atoms: _442  and  _443
REMARK  192  A    between atoms: _446  and  _448
REMARK  193  A    between atoms: _448  and  _449
REMARK  194  A    between atoms: _448  and  _451
REMARK  195  A    between atoms: _454  and  _456
REMARK  196  A    between atoms: _456  and  _457
REMARK  197  A    between atoms: _456  and  _459
REMARK  198  A    between atoms: _459  and  _460
REMARK  199  A    between atoms: _463  and  _465
REMARK  200  A    between atoms: _465  and  _466
REMARK  201  A    between atoms: _465  and  _468
REMARK  202  A    between atoms: _468  and  _469
REMARK  203  A    between atoms: _472  and  _474
REMARK  204  A    between atoms: _474  and  _475
REMARK  205  A    between atoms: _474  and  _477
REMARK  206  A    between atoms: _477  and  _478
REMARK  207  A    between atoms: _478  and  _479
REMARK  208  A    between atoms: _479  and  _480
REMARK  209  A    between atoms: _480  and  _481
REMARK  210  A    between atoms: _485  and  _487
REMARK  211  A    between atoms: _487  and  _488
REMARK  212  A    between atoms: _487  and  _490
REMARK  213  A    between atoms: _490  and  _491
REMARK  214  A    between atoms: _496  and  _498
REMARK  215  A    between atoms: _498  and  _499
REMARK  216  A    between atoms: _498  and  _501
REMARK  217  A    between atoms: _501  and  _502
REMARK  218  A    between atoms: _512  and  _514
REMARK  219  A    between atoms: _514  and  _515
REMARK  220  A    between atoms: _514  and  _517
REMARK  221  A    between atoms: _517  and  _518
REMARK  222  A    between atoms: _518  and  _519
REMARK  223  A    between atoms: _522  and  _524
REMARK  224  A    between atoms: _524  and  _525
REMARK  225  A    between atoms: _524  and  _527
REMARK  226  A    between atoms: _527  and  _528
REMARK  227  A    between atoms: _530  and  _532
REMARK  228  A    between atoms: _532  and  _533
REMARK  229  A    between atoms: _532  and  _535
REMARK  230  A    between atoms: _535  and  _536
REMARK  231  A    between atoms: _542  and  _544
REMARK  232  A    between atoms: _544  and  _545
REMARK  233  A    between atoms: _544  and  _547
REMARK  234  A    between atoms: _547  and  _548
REMARK  235  A    between atoms: _551  and  _553
REMARK  236  A    between atoms: _553  and  _554
REMARK  237  A    between atoms: _553  and  _556
REMARK  238  A    between atoms: _559  and  _561
REMARK  239  A    between atoms: _561  and  _562
REMARK  240  A    between atoms: _564  and  _566
REMARK  241  A    between atoms: _566  and  _567
REMARK  242  A    between atoms: _566  and  _569
REMARK  243  A    between atoms: _569  and  _570
REMARK  244  A    between atoms: _573  and  _575
REMARK  245  A    between atoms: _575  and  _576
REMARK  246  A    between atoms: _575  and  _578
REMARK  247  A    between atoms: _578  and  _579
REMARK  248  A    between atoms: _579  and  _580
REMARK  249  A    between atoms: _580  and  _581
REMARK  250  A    between atoms: _581  and  _582
REMARK  251  A    between atoms: _586  and  _588
REMARK  252  A    between atoms: _588  and  _589
REMARK  253  A    between atoms: _588  and  _591
REMARK                            x       y       z     vdW  Elec       q    Type
REMARK                         _______ _______ _______ _____ _____    ______ ____
ROOT
ATOM      1  O   HOH     1       3.798  -6.069 -27.329  0.00  0.00    +0.000 OA
ENDROOT
TORSDOF 0
REMARK  Name = ../refined-set-2016/3d0b/3d0b_pocket.pdb
REMARK  253 active torsions:
REMARK  status: ('A' for Active; 'I' for Inactive)
REMARK    1  A    between atoms: _1  and  _3
REMARK    2  A    between atoms: _3  and  _4
REMARK    3  A    between atoms: _3  and  _6
REMARK    4  A    between atoms: _6  and  _7
REMARK    5  A    between atoms: _13  and  _15
REMARK    6  A    between atoms: _15  and  _16
REMARK    7  A    between atoms: _15  and  _18
REMARK    8  A    between atoms: _18  and  _19
REMARK    9  A    between atoms: _19  and  _20
REMARK   10  A    between atoms: _25  and  _27
REMARK   11  A    between atoms: _27  and  _28
REMARK   12  A    between atoms: _27  and  _30
REMARK   13  A    between atoms: _30  and  _31
REMARK   14  A    between atoms: _34  and  _36
REMARK   15  A    between atoms: _36  and  _37
REMARK   16  A    between atoms: _36  and  _39
REMARK   17  A    between atoms: _39  and  _40
REMARK   18  A    between atoms: _40  and  _41
REMARK   19  A    between atoms: _43  and  _45
REMARK   20  A    between atoms: _45  and  _46
REMARK   21  A    between atoms: _45  and  _48
REMARK   22  A    between atoms: _48  and  _49
REMARK   23  A    between atoms: _49  and  _50
REMARK   24  A    between atoms: _53  and  _55
REMARK   25  A    between atoms: _55  and  _56
REMARK   26  A    between atoms: _55  and  _58
REMARK   27  A    between atoms: _58  and  _59
REMARK   28  A    between atoms: _62  and  _64
REMARK   29  A    between atoms: _64  and  _65
REMARK   30  A    between atoms: _64  and  _67
REMARK   31  A    between atoms: _67  and  _68
REMARK   32  A    between atoms: _71  and  _73
REMARK   33  A    between atoms: _73  and  _74
REMARK   34  A    between atoms: _73  and  _76
REMARK   35  A    between atoms: _76  and  _77
REMARK   36  A    between atoms: _79  and  _81
REMARK   37  A    between atoms: _81  and  _82
REMARK   38  A    between atoms: _81  and  _84
REMARK   39  A    between atoms: _84  and  _85
REMARK   40  A    between atoms: _90  and  _92
REMARK   41  A    between atoms: _92  and  _93
REMARK   42  A    between atoms: _92  and  _95
REMARK   43  A    between atoms: _95  and  _96
REMARK   44  A    between atoms: _98  and  _100
REMARK   45  A    between atoms: _100  and  _101
REMARK   46  A    between atoms: _100  and  _103
REMARK   47  A    between atoms: _103  and  _104
REMARK   48  A    between atoms: _106  and  _108
REMARK   49  A    between atoms: _108  and  _109
REMARK   50  A    between atoms: _108  and  _111
REMARK   51  A    between atoms: _111  and  _112
REMARK   52  A    between atoms: _115  and  _117
REMARK   53  A    between atoms: _117  and  _118
REMARK   54  A    between atoms: _121  and  _123
REMARK   55  A    between atoms: _123  and  _124
REMARK   56  A    between atoms: _123  and  _126
REMARK   57  A    between atoms: _126  and  _127
REMARK   58  A    between atoms: _130  and  _132
REMARK   59  A    between atoms: _132  and  _133
REMARK   60  A    between atoms: _132  and  _135
REMARK   61  A    between atoms: _135  and  _136
REMARK   62  A    between atoms: _139  and  _141
REMARK   63  A    between atoms: _141  and  _142
REMARK   64  A    between atoms: _141  and  _144
REMARK   65  A    between atoms: _144  and  _145
REMARK   66  A    between atoms: _145  and  _146
REMARK   67  A    between atoms: _146  and  _147
REMARK   68  A    between atoms: _147  and  _148
REMARK   69  A    between atoms: _152  and  _154
REMARK   70  A    between atoms: _154  and  _155
REMARK   71  A    between atoms: _154  and  _157
REMARK   72  A    between atoms: _157  and  _158
REMARK   73  A    between atoms: _161  and  _163
REMARK   74  A    between atoms: _163  and  _164
REMARK   75  A    between atoms: _163  and  _166
REMARK   76  A    between atoms: _166  and  _167
REMARK   77  A    between atoms: _170  and  _172
REMARK   78  A    between atoms: _172  and  _173
REMARK   79  A    between atoms: _172  and  _175
REMARK   80  A    between atoms: _175  and  _176
REMARK   81  A    between atoms: _179  and  _181
REMARK   82  A    between atoms: _181  and  _182
REMARK   83  A    between atoms: _181  and  _184
REMARK   84  A    between atoms: _187  and  _189
REMARK   85  A    between atoms: _189  and  _190
REMARK   86  A    between atoms: _189  and  _192
REMARK   87  A    between atoms: _192  and  _193
REMARK   88  A    between atoms: _196  and  _198
REMARK   89  A    between atoms: _198  and  _199
REMARK   90  A    between atoms: _198  and  _201
REMARK   91  A    between atoms: _201  and  _202
REMARK   92  A    between atoms: _205  and  _207
REMARK   93  A    between atoms: _207  and  _208
REMARK   94  A    between atoms: _210  and  _212
REMARK   95  A    between atoms: _212  and  _213
REMARK   96  A    between atoms: _212  and  _215
REMARK   97  A    between atoms: _215  and  _216
REMARK   98  A    between atoms: _219  and  _221
REMARK   99  A    between atoms: _221  and  _222
REMARK  100  A    between atoms: _224  and  _226
REMARK  101  A    between atoms: _226  and  _227
REMARK  102  A    between atoms: _226  and  _229
REMARK  103  A    between atoms: _229  and  _230
REMARK  104  A    between atoms: _230  and  _231
REMARK  105  A    between atoms: _233  and  _235
REMARK  106  A    between atoms: _235  and  _236
REMARK  107  A    between atoms: _235  and  _238
REMARK  108  A    between atoms: _238  and  _239
REMARK  109  A    between atoms: _242  and  _244
REMARK  110  A    between atoms: _244  and  _245
REMARK  111  A    between atoms: _244  and  _247
REMARK  112  A    between atoms: _247  and  _248
REMARK  113  A    between atoms: _251  and  _253
REMARK  114  A    between atoms: _253  and  _254
REMARK  115  A    between atoms: _253  and  _256
REMARK  116  A    between atoms: _256  and  _257
REMARK  117  A    between atoms: _260  and  _262
REMARK  118  A    between atoms: _262  and  _263
REMARK  119  A    between atoms: _262  and  _265
REMARK  120  A    between atoms: _265  and  _266
REMARK  121  A    between atoms: _269  and  _271
REMARK  122  A    between atoms: _271  and  _272
REMARK  123  A    between atoms: _271  and  _274
REMARK  124  A    between atoms: _274  and  _275
REMARK  125  A    between atoms: _280  and  _282
REMARK  126  A    between atoms: _282  and  _283
REMARK  127  A    between atoms: _282  and  _285
REMARK  128  A    between atoms: _285  and  _286
REMARK  129  A    between atoms: _291  and  _293
REMARK  130  A    between atoms: _293  and  _294
REMARK  131  A    between atoms: _293  and  _296
REMARK  132  A    between atoms: _296  and  _297
REMARK  133  A    between atoms: _300  and  _302
REMARK  134  A    between atoms: _302  and  _303
REMARK  135  A    between atoms: _305  and  _307
REMARK  136  A    between atoms: _307  and  _308
REMARK  137  A    between atoms: _307  and  _310
REMARK  138  A    between atoms: _310  and  _311
REMARK  139  A    between atoms: _314  and  _316
REMARK  140  A    between atoms: _316  and  _317
REMARK  141  A    between atoms: _316  and  _319
REMARK  142  A    between atoms: _319  and  _320
REMARK  143  A    between atoms: _323  and  _325
REMARK  144  A    between atoms: _325  and  _326
REMARK  145  A    between atoms: _329  and  _331
REMARK  146  A    between atoms: _331  and  _332
REMARK  147  A    between atoms: _331  and  _334
REMARK  148  A    between atoms: _334  and  _335
REMARK  149  A    between atoms: _335  and  _336
REMARK  150  A    between atoms: _336  and  _337
REMARK  151  A    between atoms: _337  and  _338
REMARK  152  A    between atoms: _342  and  _344
REMARK  153  A    between atoms: _344  and  _345
REMARK  154  A    between atoms: _344  and  _347
REMARK  155  A    between atoms: _347  and  _348
REMARK  156  A    between atoms: _351  and  _353
REMARK  157  A    between atoms: _353  and  _354
REMARK  158  A    between atoms: _353  and  _356
REMARK  159  A    between atoms: _356  and  _357
REMARK  160  A    between atoms: _363  and  _365
REMARK  161  A    between atoms: _365  and  _366
REMARK  162  A    between atoms: _368  and  _370
REMARK  163  A    between atoms: _370  and  _371
REMARK  164  A    between atoms: _370  and  _373
REMARK  165  A    between atoms: _376  and  _378
REMARK  166  A    between atoms: _378  and  _379
REMARK  167  A    between atoms: _381  and  _383
REMARK  168  A    between atoms: _383  and  _384
REMARK  169  A    between atoms: _383  and  _386
REMARK  170  A    between atoms: _386  and  _387
REMARK  171  A    between atoms: _393  and  _395
REMARK  172  A    between atoms: _395  and  _396
REMARK  173  A    between atoms: _395  and  _398
REMARK  174  A    between atoms: _398  and  _399
REMARK  175  A    between atoms: _404  and  _405
REMARK  176  A    between atoms: _407  and  _409
REMARK  177  A    between atoms: _409  and  _410
REMARK  178  A    between atoms: _409  and  _412
REMARK  179  A    between atoms: _412  and  _413
REMARK  180  A    between atoms: _415  and  _417
REMARK  181  A    between atoms: _417  and  _418
REMARK  182  A    between atoms: _417  and  _420
REMARK  183  A    between atoms: _420  and  _421
REMARK  184  A    between atoms: _426  and  _427
REMARK  185  A    between atoms: _429  and  _431
REMARK  186  A    between atoms: _431  and  _432
REMARK  187  A    between atoms: _431  and  _434
REMARK  188  A    between atoms: _437  and  _439
REMARK  189  A    between atoms: _439  and  _440
REMARK  190  A    between atoms: _439  and  _442
REMARK  191  A    between atoms: _442  and  _443
REMARK  192  A    between atoms: _446  and  _448
REMARK  193  A    between atoms: _448  and  _449
REMARK  194  A    between atoms: _448  and  _451
REMARK  195  A    between atoms: _454  and  _456
REMARK  196  A    between atoms: _456  and  _457
REMARK  197  A    between atoms: _456  and  _459
REMARK  198  A    between atoms: _459  and  _460
REMARK  199  A    between atoms: _463  and  _465
REMARK  200  A    between atoms: _465  and  _466
REMARK  201  A    between atoms: _465  and  _468
REMARK  202  A    between atoms: _468  and  _469
REMARK  203  A    between atoms: _472  and  _474
REMARK  204  A    between atoms: _474  and  _475
REMARK  205  A    between atoms: _474  and  _477
REMARK  206  A    between atoms: _477  and  _478
REMARK  207  A    between atoms: _478  and  _479
REMARK  208  A    between atoms: _479  and  _480
REMARK  209  A    between atoms: _480  and  _481
REMARK  210  A    between atoms: _485  and  _487
REMARK  211  A    between atoms: _487  and  _488
REMARK  212  A    between atoms: _487  and  _490
REMARK  213  A    between atoms: _490  and  _491
REMARK  214  A    between atoms: _496  and  _498
REMARK  215  A    between atoms: _498  and  _499
REMARK  216  A    between atoms: _498  and  _501
REMARK  217  A    between atoms: _501  and  _502
REMARK  218  A    between atoms: _512  and  _514
REMARK  219  A    between atoms: _514  and  _515
REMARK  220  A    between atoms: _514  and  _517
REMARK  221  A    between atoms: _517  and  _518
REMARK  222  A    between atoms: _518  and  _519
REMARK  223  A    between atoms: _522  and  _524
REMARK  224  A    between atoms: _524  and  _525
REMARK  225  A    between atoms: _524  and  _527
REMARK  226  A    between atoms: _527  and  _528
REMARK  227  A    between atoms: _530  and  _532
REMARK  228  A    between atoms: _532  and  _533
REMARK  229  A    between atoms: _532  and  _535
REMARK  230  A    between atoms: _535  and  _536
REMARK  231  A    between atoms: _542  and  _544
REMARK  232  A    between atoms: _544  and  _545
REMARK  233  A    between atoms: _544  and  _547
REMARK  234  A    between atoms: _547  and  _548
REMARK  235  A    between atoms: _551  and  _553
REMARK  236  A    between atoms: _553  and  _554
REMARK  237  A    between atoms: _553  and  _556
REMARK  238  A    between atoms: _559  and  _561
REMARK  239  A    between atoms: _561  and  _562
REMARK  240  A    between atoms: _564  and  _566
REMARK  241  A    between atoms: _566  and  _567
REMARK  242  A    between atoms: _566  and  _569
REMARK  243  A    between atoms: _569  and  _570
REMARK  244  A    between atoms: _573  and  _575
REMARK  245  A    between atoms: _575  and  _576
REMARK  246  A    between atoms: _575  and  _578
REMARK  247  A    between atoms: _578  and  _579
REMARK  248  A    between atoms: _579  and  _580
REMARK  249  A    between atoms: _580  and  _581
REMARK  250  A    between atoms: _581  and  _582
REMARK  251  A    between atoms: _586  and  _588
REMARK  252  A    between atoms: _588  and  _589
REMARK  253  A    between atoms: _588  and  _591
REMARK                            x       y       z     vdW  Elec       q    Type
REMARK                         _______ _______ _______ _____ _____    ______ ____
ROOT
ATOM      1  O   HOH     1       0.683  -2.568 -25.970  0.00  0.00    +0.000 OA
ENDROOT
TORSDOF 0
REMARK  Name = ../refined-set-2016/3d0b/3d0b_pocket.pdb
REMARK  253 active torsions:
REMARK  status: ('A' for Active; 'I' for Inactive)
REMARK    1  A    between atoms: _1  and  _3
REMARK    2  A    between atoms: _3  and  _4
REMARK    3  A    between atoms: _3  and  _6
REMARK    4  A    between atoms: _6  and  _7
REMARK    5  A    between atoms: _13  and  _15
REMARK    6  A    between atoms: _15  and  _16
REMARK    7  A    between atoms: _15  and  _18
REMARK    8  A    between atoms: _18  and  _19
REMARK    9  A    between atoms: _19  and  _20
REMARK   10  A    between atoms: _25  and  _27
REMARK   11  A    between atoms: _27  and  _28
REMARK   12  A    between atoms: _27  and  _30
REMARK   13  A    between atoms: _30  and  _31
REMARK   14  A    between atoms: _34  and  _36
REMARK   15  A    between atoms: _36  and  _37
REMARK   16  A    between atoms: _36  and  _39
REMARK   17  A    between atoms: _39  and  _40
REMARK   18  A    between atoms: _40  and  _41
REMARK   19  A    between atoms: _43  and  _45
REMARK   20  A    between atoms: _45  and  _46
REMARK   21  A    between atoms: _45  and  _48
REMARK   22  A    between atoms: _48  and  _49
REMARK   23  A    between atoms: _49  and  _50
REMARK   24  A    between atoms: _53  and  _55
REMARK   25  A    between atoms: _55  and  _56
REMARK   26  A    between atoms: _55  and  _58
REMARK   27  A    between atoms: _58  and  _59
REMARK   28  A    between atoms: _62  and  _64
REMARK   29  A    between atoms: _64  and  _65
REMARK   30  A    between atoms: _64  and  _67
REMARK   31  A    between atoms: _67  and  _68
REMARK   32  A    between atoms: _71  and  _73
REMARK   33  A    between atoms: _73  and  _74
REMARK   34  A    between atoms: _73  and  _76
REMARK   35  A    between atoms: _76  and  _77
REMARK   36  A    between atoms: _79  and  _81
REMARK   37  A    between atoms: _81  and  _82
REMARK   38  A    between atoms: _81  and  _84
REMARK   39  A    between atoms: _84  and  _85
REMARK   40  A    between atoms: _90  and  _92
REMARK   41  A    between atoms: _92  and  _93
REMARK   42  A    between atoms: _92  and  _95
REMARK   43  A    between atoms: _95  and  _96
REMARK   44  A    between atoms: _98  and  _100
REMARK   45  A    between atoms: _100  and  _101
REMARK   46  A    between atoms: _100  and  _103
REMARK   47  A    between atoms: _103  and  _104
REMARK   48  A    between atoms: _106  and  _108
REMARK   49  A    between atoms: _108  and  _109
REMARK   50  A    between atoms: _108  and  _111
REMARK   51  A    between atoms: _111  and  _112
REMARK   52  A    between atoms: _115  and  _117
REMARK   53  A    between atoms: _117  and  _118
REMARK   54  A    between atoms: _121  and  _123
REMARK   55  A    between atoms: _123  and  _124
REMARK   56  A    between atoms: _123  and  _126
REMARK   57  A    between atoms: _126  and  _127
REMARK   58  A    between atoms: _130  and  _132
REMARK   59  A    between atoms: _132  and  _133
REMARK   60  A    between atoms: _132  and  _135
REMARK   61  A    between atoms: _135  and  _136
REMARK   62  A    between atoms: _139  and  _141
REMARK   63  A    between atoms: _141  and  _142
REMARK   64  A    between atoms: _141  and  _144
REMARK   65  A    between atoms: _144  and  _145
REMARK   66  A    between atoms: _145  and  _146
REMARK   67  A    between atoms: _146  and  _147
REMARK   68  A    between atoms: _147  and  _148
REMARK   69  A    between atoms: _152  and  _154
REMARK   70  A    between atoms: _154  and  _155
REMARK   71  A    between atoms: _154  and  _157
REMARK   72  A    between atoms: _157  and  _158
REMARK   73  A    between atoms: _161  and  _163
REMARK   74  A    between atoms: _163  and  _164
REMARK   75  A    between atoms: _163  and  _166
REMARK   76  A    between atoms: _166  and  _167
REMARK   77  A    between atoms: _170  and  _172
REMARK   78  A    between atoms: _172  and  _173
REMARK   79  A    between atoms: _172  and  _175
REMARK   80  A    between atoms: _175  and  _176
REMARK   81  A    between atoms: _179  and  _181
REMARK   82  A    between atoms: _181  and  _182
REMARK   83  A    between atoms: _181  and  _184
REMARK   84  A    between atoms: _187  and  _189
REMARK   85  A    between atoms: _189  and  _190
REMARK   86  A    between atoms: _189  and  _192
REMARK   87  A    between atoms: _192  and  _193
REMARK   88  A    between atoms: _196  and  _198
REMARK   89  A    between atoms: _198  and  _199
REMARK   90  A    between atoms: _198  and  _201
REMARK   91  A    between atoms: _201  and  _202
REMARK   92  A    between atoms: _205  and  _207
REMARK   93  A    between atoms: _207  and  _208
REMARK   94  A    between atoms: _210  and  _212
REMARK   95  A    between atoms: _212  and  _213
REMARK   96  A    between atoms: _212  and  _215
REMARK   97  A    between atoms: _215  and  _216
REMARK   98  A    between atoms: _219  and  _221
REMARK   99  A    between atoms: _221  and  _222
REMARK  100  A    between atoms: _224  and  _226
REMARK  101  A    between atoms: _226  and  _227
REMARK  102  A    between atoms: _226  and  _229
REMARK  103  A    between atoms: _229  and  _230
REMARK  104  A    between atoms: _230  and  _231
REMARK  105  A    between atoms: _233  and  _235
REMARK  106  A    between atoms: _235  and  _236
REMARK  107  A    between atoms: _235  and  _238
REMARK  108  A    between atoms: _238  and  _239
REMARK  109  A    between atoms: _242  and  _244
REMARK  110  A    between atoms: _244  and  _245
REMARK  111  A    between atoms: _244  and  _247
REMARK  112  A    between atoms: _247  and  _248
REMARK  113  A    between atoms: _251  and  _253
REMARK  114  A    between atoms: _253  and  _254
REMARK  115  A    between atoms: _253  and  _256
REMARK  116  A    between atoms: _256  and  _257
REMARK  117  A    between atoms: _260  and  _262
REMARK  118  A    between atoms: _262  and  _263
REMARK  119  A    between atoms: _262  and  _265
REMARK  120  A    between atoms: _265  and  _266
REMARK  121  A    between atoms: _269  and  _271
REMARK  122  A    between atoms: _271  and  _272
REMARK  123  A    between atoms: _271  and  _274
REMARK  124  A    between atoms: _274  and  _275
REMARK  125  A    between atoms: _280  and  _282
REMARK  126  A    between atoms: _282  and  _283
REMARK  127  A    between atoms: _282  and  _285
REMARK  128  A    between atoms: _285  and  _286
REMARK  129  A    between atoms: _291  and  _293
REMARK  130  A    between atoms: _293  and  _294
REMARK  131  A    between atoms: _293  and  _296
REMARK  132  A    between atoms: _296  and  _297
REMARK  133  A    between atoms: _300  and  _302
REMARK  134  A    between atoms: _302  and  _303
REMARK  135  A    between atoms: _305  and  _307
REMARK  136  A    between atoms: _307  and  _308
REMARK  137  A    between atoms: _307  and  _310
REMARK  138  A    between atoms: _310  and  _311
REMARK  139  A    between atoms: _314  and  _316
REMARK  140  A    between atoms: _316  and  _317
REMARK  141  A    between atoms: _316  and  _319
REMARK  142  A    between atoms: _319  and  _320
REMARK  143  A    between atoms: _323  and  _325
REMARK  144  A    between atoms: _325  and  _326
REMARK  145  A    between atoms: _329  and  _331
REMARK  146  A    between atoms: _331  and  _332
REMARK  147  A    between atoms: _331  and  _334
REMARK  148  A    between atoms: _334  and  _335
REMARK  149  A    between atoms: _335  and  _336
REMARK  150  A    between atoms: _336  and  _337
REMARK  151  A    between atoms: _337  and  _338
REMARK  152  A    between atoms: _342  and  _344
REMARK  153  A    between atoms: _344  and  _345
REMARK  154  A    between atoms: _344  and  _347
REMARK  155  A    between atoms: _347  and  _348
REMARK  156  A    between atoms: _351  and  _353
REMARK  157  A    between atoms: _353  and  _354
REMARK  158  A    between atoms: _353  and  _356
REMARK  159  A    between atoms: _356  and  _357
REMARK  160  A    between atoms: _363  and  _365
REMARK  161  A    between atoms: _365  and  _366
REMARK  162  A    between atoms: _368  and  _370
REMARK  163  A    between atoms: _370  and  _371
REMARK  164  A    between atoms: _370  and  _373
REMARK  165  A    between atoms: _376  and  _378
REMARK  166  A    between atoms: _378  and  _379
REMARK  167  A    between atoms: _381  and  _383
REMARK  168  A    between atoms: _383  and  _384
REMARK  169  A    between atoms: _383  and  _386
REMARK  170  A    between atoms: _386  and  _387
REMARK  171  A    between atoms: _393  and  _395
REMARK  172  A    between atoms: _395  and  _396
REMARK  173  A    between atoms: _395  and  _398
REMARK  174  A    between atoms: _398  and  _399
REMARK  175  A    between atoms: _404  and  _405
REMARK  176  A    between atoms: _407  and  _409
REMARK  177  A    between atoms: _409  and  _410
REMARK  178  A    between atoms: _409  and  _412
REMARK  179  A    between atoms: _412  and  _413
REMARK  180  A    between atoms: _415  and  _417
REMARK  181  A    between atoms: _417  and  _418
REMARK  182  A    between atoms: _417  and  _420
REMARK  183  A    between atoms: _420  and  _421
REMARK  184  A    between atoms: _426  and  _427
REMARK  185  A    between atoms: _429  and  _431
REMARK  186  A    between atoms: _431  and  _432
REMARK  187  A    between atoms: _431  and  _434
REMARK  188  A    between atoms: _437  and  _439
REMARK  189  A    between atoms: _439  and  _440
REMARK  190  A    between atoms: _439  and  _442
REMARK  191  A    between atoms: _442  and  _443
REMARK  192  A    between atoms: _446  and  _448
REMARK  193  A    between atoms: _448  and  _449
REMARK  194  A    between atoms: _448  and  _451
REMARK  195  A    between atoms: _454  and  _456
REMARK  196  A    between atoms: _456  and  _457
REMARK  197  A    between atoms: _456  and  _459
REMARK  198  A    between atoms: _459  and  _460
REMARK  199  A    between atoms: _463  and  _465
REMARK  200  A    between atoms: _465  and  _466
REMARK  201  A    between atoms: _465  and  _468
REMARK  202  A    between atoms: _468  and  _469
REMARK  203  A    between atoms: _472  and  _474
REMARK  204  A    between atoms: _474  and  _475
REMARK  205  A    between atoms: _474  and  _477
REMARK  206  A    between atoms: _477  and  _478
REMARK  207  A    between atoms: _478  and  _479
REMARK  208  A    between atoms: _479  and  _480
REMARK  209  A    between atoms: _480  and  _481
REMARK  210  A    between atoms: _485  and  _487
REMARK  211  A    between atoms: _487  and  _488
REMARK  212  A    between atoms: _487  and  _490
REMARK  213  A    between atoms: _490  and  _491
REMARK  214  A    between atoms: _496  and  _498
REMARK  215  A    between atoms: _498  and  _499
REMARK  216  A    between atoms: _498  and  _501
REMARK  217  A    between atoms: _501  and  _502
REMARK  218  A    between atoms: _512  and  _514
REMARK  219  A    between atoms: _514  and  _515
REMARK  220  A    between atoms: _514  and  _517
REMARK  221  A    between atoms: _517  and  _518
REMARK  222  A    between atoms: _518  and  _519
REMARK  223  A    between atoms: _522  and  _524
REMARK  224  A    between atoms: _524  and  _525
REMARK  225  A    between atoms: _524  and  _527
REMARK  226  A    between atoms: _527  and  _528
REMARK  227  A    between atoms: _530  and  _532
REMARK  228  A    between atoms: _532  and  _533
REMARK  229  A    between atoms: _532  and  _535
REMARK  230  A    between atoms: _535  and  _536
REMARK  231  A    between atoms: _542  and  _544
REMARK  232  A    between atoms: _544  and  _545
REMARK  233  A    between atoms: _544  and  _547
REMARK  234  A    between atoms: _547  and  _548
REMARK  235  A    between atoms: _551  and  _553
REMARK  236  A    between atoms: _553  and  _554
REMARK  237  A    between atoms: _553  and  _556
REMARK  238  A    between atoms: _559  and  _561
REMARK  239  A    between atoms: _561  and  _562
REMARK  240  A    between atoms: _564  and  _566
REMARK  241  A    between atoms: _566  and  _567
REMARK  242  A    between atoms: _566  and  _569
REMARK  243  A    between atoms: _569  and  _570
REMARK  244  A    between atoms: _573  and  _575
REMARK  245  A    between atoms: _575  and  _576
REMARK  246  A    between atoms: _575  and  _578
REMARK  247  A    between atoms: _578  and  _579
REMARK  248  A    between atoms: _579  and  _580
REMARK  249  A    between atoms: _580  and  _581
REMARK  250  A    between atoms: _581  and  _582
REMARK  251  A    between atoms: _586  and  _588
REMARK  252  A    between atoms: _588  and  _589
REMARK  253  A    between atoms: _588  and  _591
REMARK                            x       y       z     vdW  Elec       q    Type
REMARK                         _______ _______ _______ _____ _____    ______ ____
ROOT
ATOM      1  O   HOH     1       3.593  -4.161 -17.938  0.00  0.00    +0.000 OA
ENDROOT
TORSDOF 0
REMARK  Name = ../refined-set-2016/3d0b/3d0b_pocket.pdb
REMARK  253 active torsions:
REMARK  status: ('A' for Active; 'I' for Inactive)
REMARK    1  A    between atoms: _1  and  _3
REMARK    2  A    between atoms: _3  and  _4
REMARK    3  A    between atoms: _3  and  _6
REMARK    4  A    between atoms: _6  and  _7
REMARK    5  A    between atoms: _13  and  _15
REMARK    6  A    between atoms: _15  and  _16
REMARK    7  A    between atoms: _15  and  _18
REMARK    8  A    between atoms: _18  and  _19
REMARK    9  A    between atoms: _19  and  _20
REMARK   10  A    between atoms: _25  and  _27
REMARK   11  A    between atoms: _27  and  _28
REMARK   12  A    between atoms: _27  and  _30
REMARK   13  A    between atoms: _30  and  _31
REMARK   14  A    between atoms: _34  and  _36
REMARK   15  A    between atoms: _36  and  _37
REMARK   16  A    between atoms: _36  and  _39
REMARK   17  A    between atoms: _39  and  _40
REMARK   18  A    between atoms: _40  and  _41
REMARK   19  A    between atoms: _43  and  _45
REMARK   20  A    between atoms: _45  and  _46
REMARK   21  A    between atoms: _45  and  _48
REMARK   22  A    between atoms: _48  and  _49
REMARK   23  A    between atoms: _49  and  _50
REMARK   24  A    between atoms: _53  and  _55
REMARK   25  A    between atoms: _55  and  _56
REMARK   26  A    between atoms: _55  and  _58
REMARK   27  A    between atoms: _58  and  _59
REMARK   28  A    between atoms: _62  and  _64
REMARK   29  A    between atoms: _64  and  _65
REMARK   30  A    between atoms: _64  and  _67
REMARK   31  A    between atoms: _67  and  _68
REMARK   32  A    between atoms: _71  and  _73
REMARK   33  A    between atoms: _73  and  _74
REMARK   34  A    between atoms: _73  and  _76
REMARK   35  A    between atoms: _76  and  _77
REMARK   36  A    between atoms: _79  and  _81
REMARK   37  A    between atoms: _81  and  _82
REMARK   38  A    between atoms: _81  and  _84
REMARK   39  A    between atoms: _84  and  _85
REMARK   40  A    between atoms: _90  and  _92
REMARK   41  A    between atoms: _92  and  _93
REMARK   42  A    between atoms: _92  and  _95
REMARK   43  A    between atoms: _95  and  _96
REMARK   44  A    between atoms: _98  and  _100
REMARK   45  A    between atoms: _100  and  _101
REMARK   46  A    between atoms: _100  and  _103
REMARK   47  A    between atoms: _103  and  _104
REMARK   48  A    between atoms: _106  and  _108
REMARK   49  A    between atoms: _108  and  _109
REMARK   50  A    between atoms: _108  and  _111
REMARK   51  A    between atoms: _111  and  _112
REMARK   52  A    between atoms: _115  and  _117
REMARK   53  A    between atoms: _117  and  _118
REMARK   54  A    between atoms: _121  and  _123
REMARK   55  A    between atoms: _123  and  _124
REMARK   56  A    between atoms: _123  and  _126
REMARK   57  A    between atoms: _126  and  _127
REMARK   58  A    between atoms: _130  and  _132
REMARK   59  A    between atoms: _132  and  _133
REMARK   60  A    between atoms: _132  and  _135
REMARK   61  A    between atoms: _135  and  _136
REMARK   62  A    between atoms: _139  and  _141
REMARK   63  A    between atoms: _141  and  _142
REMARK   64  A    between atoms: _141  and  _144
REMARK   65  A    between atoms: _144  and  _145
REMARK   66  A    between atoms: _145  and  _146
REMARK   67  A    between atoms: _146  and  _147
REMARK   68  A    between atoms: _147  and  _148
REMARK   69  A    between atoms: _152  and  _154
REMARK   70  A    between atoms: _154  and  _155
REMARK   71  A    between atoms: _154  and  _157
REMARK   72  A    between atoms: _157  and  _158
REMARK   73  A    between atoms: _161  and  _163
REMARK   74  A    between atoms: _163  and  _164
REMARK   75  A    between atoms: _163  and  _166
REMARK   76  A    between atoms: _166  and  _167
REMARK   77  A    between atoms: _170  and  _172
REMARK   78  A    between atoms: _172  and  _173
REMARK   79  A    between atoms: _172  and  _175
REMARK   80  A    between atoms: _175  and  _176
REMARK   81  A    between atoms: _179  and  _181
REMARK   82  A    between atoms: _181  and  _182
REMARK   83  A    between atoms: _181  and  _184
REMARK   84  A    between atoms: _187  and  _189
REMARK   85  A    between atoms: _189  and  _190
REMARK   86  A    between atoms: _189  and  _192
REMARK   87  A    between atoms: _192  and  _193
REMARK   88  A    between atoms: _196  and  _198
REMARK   89  A    between atoms: _198  and  _199
REMARK   90  A    between atoms: _198  and  _201
REMARK   91  A    between atoms: _201  and  _202
REMARK   92  A    between atoms: _205  and  _207
REMARK   93  A    between atoms: _207  and  _208
REMARK   94  A    between atoms: _210  and  _212
REMARK   95  A    between atoms: _212  and  _213
REMARK   96  A    between atoms: _212  and  _215
REMARK   97  A    between atoms: _215  and  _216
REMARK   98  A    between atoms: _219  and  _221
REMARK   99  A    between atoms: _221  and  _222
REMARK  100  A    between atoms: _224  and  _226
REMARK  101  A    between atoms: _226  and  _227
REMARK  102  A    between atoms: _226  and  _229
REMARK  103  A    between atoms: _229  and  _230
REMARK  104  A    between atoms: _230  and  _231
REMARK  105  A    between atoms: _233  and  _235
REMARK  106  A    between atoms: _235  and  _236
REMARK  107  A    between atoms: _235  and  _238
REMARK  108  A    between atoms: _238  and  _239
REMARK  109  A    between atoms: _242  and  _244
REMARK  110  A    between atoms: _244  and  _245
REMARK  111  A    between atoms: _244  and  _247
REMARK  112  A    between atoms: _247  and  _248
REMARK  113  A    between atoms: _251  and  _253
REMARK  114  A    between atoms: _253  and  _254
REMARK  115  A    between atoms: _253  and  _256
REMARK  116  A    between atoms: _256  and  _257
REMARK  117  A    between atoms: _260  and  _262
REMARK  118  A    between atoms: _262  and  _263
REMARK  119  A    between atoms: _262  and  _265
REMARK  120  A    between atoms: _265  and  _266
REMARK  121  A    between atoms: _269  and  _271
REMARK  122  A    between atoms: _271  and  _272
REMARK  123  A    between atoms: _271  and  _274
REMARK  124  A    between atoms: _274  and  _275
REMARK  125  A    between atoms: _280  and  _282
REMARK  126  A    between atoms: _282  and  _283
REMARK  127  A    between atoms: _282  and  _285
REMARK  128  A    between atoms: _285  and  _286
REMARK  129  A    between atoms: _291  and  _293
REMARK  130  A    between atoms: _293  and  _294
REMARK  131  A    between atoms: _293  and  _296
REMARK  132  A    between atoms: _296  and  _297
REMARK  133  A    between atoms: _300  and  _302
REMARK  134  A    between atoms: _302  and  _303
REMARK  135  A    between atoms: _305  and  _307
REMARK  136  A    between atoms: _307  and  _308
REMARK  137  A    between atoms: _307  and  _310
REMARK  138  A    between atoms: _310  and  _311
REMARK  139  A    between atoms: _314  and  _316
REMARK  140  A    between atoms: _316  and  _317
REMARK  141  A    between atoms: _316  and  _319
REMARK  142  A    between atoms: _319  and  _320
REMARK  143  A    between atoms: _323  and  _325
REMARK  144  A    between atoms: _325  and  _326
REMARK  145  A    between atoms: _329  and  _331
REMARK  146  A    between atoms: _331  and  _332
REMARK  147  A    between atoms: _331  and  _334
REMARK  148  A    between atoms: _334  and  _335
REMARK  149  A    between atoms: _335  and  _336
REMARK  150  A    between atoms: _336  and  _337
REMARK  151  A    between atoms: _337  and  _338
REMARK  152  A    between atoms: _342  and  _344
REMARK  153  A    between atoms: _344  and  _345
REMARK  154  A    between atoms: _344  and  _347
REMARK  155  A    between atoms: _347  and  _348
REMARK  156  A    between atoms: _351  and  _353
REMARK  157  A    between atoms: _353  and  _354
REMARK  158  A    between atoms: _353  and  _356
REMARK  159  A    between atoms: _356  and  _357
REMARK  160  A    between atoms: _363  and  _365
REMARK  161  A    between atoms: _365  and  _366
REMARK  162  A    between atoms: _368  and  _370
REMARK  163  A    between atoms: _370  and  _371
REMARK  164  A    between atoms: _370  and  _373
REMARK  165  A    between atoms: _376  and  _378
REMARK  166  A    between atoms: _378  and  _379
REMARK  167  A    between atoms: _381  and  _383
REMARK  168  A    between atoms: _383  and  _384
REMARK  169  A    between atoms: _383  and  _386
REMARK  170  A    between atoms: _386  and  _387
REMARK  171  A    between atoms: _393  and  _395
REMARK  172  A    between atoms: _395  and  _396
REMARK  173  A    between atoms: _395  and  _398
REMARK  174  A    between atoms: _398  and  _399
REMARK  175  A    between atoms: _404  and  _405
REMARK  176  A    between atoms: _407  and  _409
REMARK  177  A    between atoms: _409  and  _410
REMARK  178  A    between atoms: _409  and  _412
REMARK  179  A    between atoms: _412  and  _413
REMARK  180  A    between atoms: _415  and  _417
REMARK  181  A    between atoms: _417  and  _418
REMARK  182  A    between atoms: _417  and  _420
REMARK  183  A    between atoms: _420  and  _421
REMARK  184  A    between atoms: _426  and  _427
REMARK  185  A    between atoms: _429  and  _431
REMARK  186  A    between atoms: _431  and  _432
REMARK  187  A    between atoms: _431  and  _434
REMARK  188  A    between atoms: _437  and  _439
REMARK  189  A    between atoms: _439  and  _440
REMARK  190  A    between atoms: _439  and  _442
REMARK  191  A    between atoms: _442  and  _443
REMARK  192  A    between atoms: _446  and  _448
REMARK  193  A    between atoms: _448  and  _449
REMARK  194  A    between atoms: _448  and  _451
REMARK  195  A    between atoms: _454  and  _456
REMARK  196  A    between atoms: _456  and  _457
REMARK  197  A    between atoms: _456  and  _459
REMARK  198  A    between atoms: _459  and  _460
REMARK  199  A    between atoms: _463  and  _465
REMARK  200  A    between atoms: _465  and  _466
REMARK  201  A    between atoms: _465  and  _468
REMARK  202  A    between atoms: _468  and  _469
REMARK  203  A    between atoms: _472  and  _474
REMARK  204  A    between atoms: _474  and  _475
REMARK  205  A    between atoms: _474  and  _477
REMARK  206  A    between atoms: _477  and  _478
REMARK  207  A    between atoms: _478  and  _479
REMARK  208  A    between atoms: _479  and  _480
REMARK  209  A    between atoms: _480  and  _481
REMARK  210  A    between atoms: _485  and  _487
REMARK  211  A    between atoms: _487  and  _488
REMARK  212  A    between atoms: _487  and  _490
REMARK  213  A    between atoms: _490  and  _491
REMARK  214  A    between atoms: _496  and  _498
REMARK  215  A    between atoms: _498  and  _499
REMARK  216  A    between atoms: _498  and  _501
REMARK  217  A    between atoms: _501  and  _502
REMARK  218  A    between atoms: _512  and  _514
REMARK  219  A    between atoms: _514  and  _515
REMARK  220  A    between atoms: _514  and  _517
REMARK  221  A    between atoms: _517  and  _518
REMARK  222  A    between atoms: _518  and  _519
REMARK  223  A    between atoms: _522  and  _524
REMARK  224  A    between atoms: _524  and  _525
REMARK  225  A    between atoms: _524  and  _527
REMARK  226  A    between atoms: _527  and  _528
REMARK  227  A    between atoms: _530  and  _532
REMARK  228  A    between atoms: _532  and  _533
REMARK  229  A    between atoms: _532  and  _535
REMARK  230  A    between atoms: _535  and  _536
REMARK  231  A    between atoms: _542  and  _544
REMARK  232  A    between atoms: _544  and  _545
REMARK  233  A    between atoms: _544  and  _547
REMARK  234  A    between atoms: _547  and  _548
REMARK  235  A    between atoms: _551  and  _553
REMARK  236  A    between atoms: _553  and  _554
REMARK  237  A    between atoms: _553  and  _556
REMARK  238  A    between atoms: _559  and  _561
REMARK  239  A    between atoms: _561  and  _562
REMARK  240  A    between atoms: _564  and  _566
REMARK  241  A    between atoms: _566  and  _567
REMARK  242  A    between atoms: _566  and  _569
REMARK  243  A    between atoms: _569  and  _570
REMARK  244  A    between atoms: _573  and  _575
REMARK  245  A    between atoms: _575  and  _576
REMARK  246  A    between atoms: _575  and  _578
REMARK  247  A    between atoms: _578  and  _579
REMARK  248  A    between atoms: _579  and  _580
REMARK  249  A    between atoms: _580  and  _581
REMARK  250  A    between atoms: _581  and  _582
REMARK  251  A    between atoms: _586  and  _588
REMARK  252  A    between atoms: _588  and  _589
REMARK  253  A    between atoms: _588  and  _591
REMARK                            x       y       z     vdW  Elec       q    Type
REMARK                         _______ _______ _______ _____ _____    ______ ____
ROOT
ATOM      1  O   HOH     1       6.429  -5.550 -26.095  0.00  0.00    +0.000 OA
ENDROOT
TORSDOF 0
REMARK  Name = ../refined-set-2016/3d0b/3d0b_pocket.pdb
REMARK  253 active torsions:
REMARK  status: ('A' for Active; 'I' for Inactive)
REMARK    1  A    between atoms: _1  and  _3
REMARK    2  A    between atoms: _3  and  _4
REMARK    3  A    between atoms: _3  and  _6
REMARK    4  A    between atoms: _6  and  _7
REMARK    5  A    between atoms: _13  and  _15
REMARK    6  A    between atoms: _15  and  _16
REMARK    7  A    between atoms: _15  and  _18
REMARK    8  A    between atoms: _18  and  _19
REMARK    9  A    between atoms: _19  and  _20
REMARK   10  A    between atoms: _25  and  _27
REMARK   11  A    between atoms: _27  and  _28
REMARK   12  A    between atoms: _27  and  _30
REMARK   13  A    between atoms: _30  and  _31
REMARK   14  A    between atoms: _34  and  _36
REMARK   15  A    between atoms: _36  and  _37
REMARK   16  A    between atoms: _36  and  _39
REMARK   17  A    between atoms: _39  and  _40
REMARK   18  A    between atoms: _40  and  _41
REMARK   19  A    between atoms: _43  and  _45
REMARK   20  A    between atoms: _45  and  _46
REMARK   21  A    between atoms: _45  and  _48
REMARK   22  A    between atoms: _48  and  _49
REMARK   23  A    between atoms: _49  and  _50
REMARK   24  A    between atoms: _53  and  _55
REMARK   25  A    between atoms: _55  and  _56
REMARK   26  A    between atoms: _55  and  _58
REMARK   27  A    between atoms: _58  and  _59
REMARK   28  A    between atoms: _62  and  _64
REMARK   29  A    between atoms: _64  and  _65
REMARK   30  A    between atoms: _64  and  _67
REMARK   31  A    between atoms: _67  and  _68
REMARK   32  A    between atoms: _71  and  _73
REMARK   33  A    between atoms: _73  and  _74
REMARK   34  A    between atoms: _73  and  _76
REMARK   35  A    between atoms: _76  and  _77
REMARK   36  A    between atoms: _79  and  _81
REMARK   37  A    between atoms: _81  and  _82
REMARK   38  A    between atoms: _81  and  _84
REMARK   39  A    between atoms: _84  and  _85
REMARK   40  A    between atoms: _90  and  _92
REMARK   41  A    between atoms: _92  and  _93
REMARK   42  A    between atoms: _92  and  _95
REMARK   43  A    between atoms: _95  and  _96
REMARK   44  A    between atoms: _98  and  _100
REMARK   45  A    between atoms: _100  and  _101
REMARK   46  A    between atoms: _100  and  _103
REMARK   47  A    between atoms: _103  and  _104
REMARK   48  A    between atoms: _106  and  _108
REMARK   49  A    between atoms: _108  and  _109
REMARK   50  A    between atoms: _108  and  _111
REMARK   51  A    between atoms: _111  and  _112
REMARK   52  A    between atoms: _115  and  _117
REMARK   53  A    between atoms: _117  and  _118
REMARK   54  A    between atoms: _121  and  _123
REMARK   55  A    between atoms: _123  and  _124
REMARK   56  A    between atoms: _123  and  _126
REMARK   57  A    between atoms: _126  and  _127
REMARK   58  A    between atoms: _130  and  _132
REMARK   59  A    between atoms: _132  and  _133
REMARK   60  A    between atoms: _132  and  _135
REMARK   61  A    between atoms: _135  and  _136
REMARK   62  A    between atoms: _139  and  _141
REMARK   63  A    between atoms: _141  and  _142
REMARK   64  A    between atoms: _141  and  _144
REMARK   65  A    between atoms: _144  and  _145
REMARK   66  A    between atoms: _145  and  _146
REMARK   67  A    between atoms: _146  and  _147
REMARK   68  A    between atoms: _147  and  _148
REMARK   69  A    between atoms: _152  and  _154
REMARK   70  A    between atoms: _154  and  _155
REMARK   71  A    between atoms: _154  and  _157
REMARK   72  A    between atoms: _157  and  _158
REMARK   73  A    between atoms: _161  and  _163
REMARK   74  A    between atoms: _163  and  _164
REMARK   75  A    between atoms: _163  and  _166
REMARK   76  A    between atoms: _166  and  _167
REMARK   77  A    between atoms: _170  and  _172
REMARK   78  A    between atoms: _172  and  _173
REMARK   79  A    between atoms: _172  and  _175
REMARK   80  A    between atoms: _175  and  _176
REMARK   81  A    between atoms: _179  and  _181
REMARK   82  A    between atoms: _181  and  _182
REMARK   83  A    between atoms: _181  and  _184
REMARK   84  A    between atoms: _187  and  _189
REMARK   85  A    between atoms: _189  and  _190
REMARK   86  A    between atoms: _189  and  _192
REMARK   87  A    between atoms: _192  and  _193
REMARK   88  A    between atoms: _196  and  _198
REMARK   89  A    between atoms: _198  and  _199
REMARK   90  A    between atoms: _198  and  _201
REMARK   91  A    between atoms: _201  and  _202
REMARK   92  A    between atoms: _205  and  _207
REMARK   93  A    between atoms: _207  and  _208
REMARK   94  A    between atoms: _210  and  _212
REMARK   95  A    between atoms: _212  and  _213
REMARK   96  A    between atoms: _212  and  _215
REMARK   97  A    between atoms: _215  and  _216
REMARK   98  A    between atoms: _219  and  _221
REMARK   99  A    between atoms: _221  and  _222
REMARK  100  A    between atoms: _224  and  _226
REMARK  101  A    between atoms: _226  and  _227
REMARK  102  A    between atoms: _226  and  _229
REMARK  103  A    between atoms: _229  and  _230
REMARK  104  A    between atoms: _230  and  _231
REMARK  105  A    between atoms: _233  and  _235
REMARK  106  A    between atoms: _235  and  _236
REMARK  107  A    between atoms: _235  and  _238
REMARK  108  A    between atoms: _238  and  _239
REMARK  109  A    between atoms: _242  and  _244
REMARK  110  A    between atoms: _244  and  _245
REMARK  111  A    between atoms: _244  and  _247
REMARK  112  A    between atoms: _247  and  _248
REMARK  113  A    between atoms: _251  and  _253
REMARK  114  A    between atoms: _253  and  _254
REMARK  115  A    between atoms: _253  and  _256
REMARK  116  A    between atoms: _256  and  _257
REMARK  117  A    between atoms: _260  and  _262
REMARK  118  A    between atoms: _262  and  _263
REMARK  119  A    between atoms: _262  and  _265
REMARK  120  A    between atoms: _265  and  _266
REMARK  121  A    between atoms: _269  and  _271
REMARK  122  A    between atoms: _271  and  _272
REMARK  123  A    between atoms: _271  and  _274
REMARK  124  A    between atoms: _274  and  _275
REMARK  125  A    between atoms: _280  and  _282
REMARK  126  A    between atoms: _282  and  _283
REMARK  127  A    between atoms: _282  and  _285
REMARK  128  A    between atoms: _285  and  _286
REMARK  129  A    between atoms: _291  and  _293
REMARK  130  A    between atoms: _293  and  _294
REMARK  131  A    between atoms: _293  and  _296
REMARK  132  A    between atoms: _296  and  _297
REMARK  133  A    between atoms: _300  and  _302
REMARK  134  A    between atoms: _302  and  _303
REMARK  135  A    between atoms: _305  and  _307
REMARK  136  A    between atoms: _307  and  _308
REMARK  137  A    between atoms: _307  and  _310
REMARK  138  A    between atoms: _310  and  _311
REMARK  139  A    between atoms: _314  and  _316
REMARK  140  A    between atoms: _316  and  _317
REMARK  141  A    between atoms: _316  and  _319
REMARK  142  A    between atoms: _319  and  _320
REMARK  143  A    between atoms: _323  and  _325
REMARK  144  A    between atoms: _325  and  _326
REMARK  145  A    between atoms: _329  and  _331
REMARK  146  A    between atoms: _331  and  _332
REMARK  147  A    between atoms: _331  and  _334
REMARK  148  A    between atoms: _334  and  _335
REMARK  149  A    between atoms: _335  and  _336
REMARK  150  A    between atoms: _336  and  _337
REMARK  151  A    between atoms: _337  and  _338
REMARK  152  A    between atoms: _342  and  _344
REMARK  153  A    between atoms: _344  and  _345
REMARK  154  A    between atoms: _344  and  _347
REMARK  155  A    between atoms: _347  and  _348
REMARK  156  A    between atoms: _351  and  _353
REMARK  157  A    between atoms: _353  and  _354
REMARK  158  A    between atoms: _353  and  _356
REMARK  159  A    between atoms: _356  and  _357
REMARK  160  A    between atoms: _363  and  _365
REMARK  161  A    between atoms: _365  and  _366
REMARK  162  A    between atoms: _368  and  _370
REMARK  163  A    between atoms: _370  and  _371
REMARK  164  A    between atoms: _370  and  _373
REMARK  165  A    between atoms: _376  and  _378
REMARK  166  A    between atoms: _378  and  _379
REMARK  167  A    between atoms: _381  and  _383
REMARK  168  A    between atoms: _383  and  _384
REMARK  169  A    between atoms: _383  and  _386
REMARK  170  A    between atoms: _386  and  _387
REMARK  171  A    between atoms: _393  and  _395
REMARK  172  A    between atoms: _395  and  _396
REMARK  173  A    between atoms: _395  and  _398
REMARK  174  A    between atoms: _398  and  _399
REMARK  175  A    between atoms: _404  and  _405
REMARK  176  A    between atoms: _407  and  _409
REMARK  177  A    between atoms: _409  and  _410
REMARK  178  A    between atoms: _409  and  _412
REMARK  179  A    between atoms: _412  and  _413
REMARK  180  A    between atoms: _415  and  _417
REMARK  181  A    between atoms: _417  and  _418
REMARK  182  A    between atoms: _417  and  _420
REMARK  183  A    between atoms: _420  and  _421
REMARK  184  A    between atoms: _426  and  _427
REMARK  185  A    between atoms: _429  and  _431
REMARK  186  A    between atoms: _431  and  _432
REMARK  187  A    between atoms: _431  and  _434
REMARK  188  A    between atoms: _437  and  _439
REMARK  189  A    between atoms: _439  and  _440
REMARK  190  A    between atoms: _439  and  _442
REMARK  191  A    between atoms: _442  and  _443
REMARK  192  A    between atoms: _446  and  _448
REMARK  193  A    between atoms: _448  and  _449
REMARK  194  A    between atoms: _448  and  _451
REMARK  195  A    between atoms: _454  and  _456
REMARK  196  A    between atoms: _456  and  _457
REMARK  197  A    between atoms: _456  and  _459
REMARK  198  A    between atoms: _459  and  _460
REMARK  199  A    between atoms: _463  and  _465
REMARK  200  A    between atoms: _465  and  _466
REMARK  201  A    between atoms: _465  and  _468
REMARK  202  A    between atoms: _468  and  _469
REMARK  203  A    between atoms: _472  and  _474
REMARK  204  A    between atoms: _474  and  _475
REMARK  205  A    between atoms: _474  and  _477
REMARK  206  A    between atoms: _477  and  _478
REMARK  207  A    between atoms: _478  and  _479
REMARK  208  A    between atoms: _479  and  _480
REMARK  209  A    between atoms: _480  and  _481
REMARK  210  A    between atoms: _485  and  _487
REMARK  211  A    between atoms: _487  and  _488
REMARK  212  A    between atoms: _487  and  _490
REMARK  213  A    between atoms: _490  and  _491
REMARK  214  A    between atoms: _496  and  _498
REMARK  215  A    between atoms: _498  and  _499
REMARK  216  A    between atoms: _498  and  _501
REMARK  217  A    between atoms: _501  and  _502
REMARK  218  A    between atoms: _512  and  _514
REMARK  219  A    between atoms: _514  and  _515
REMARK  220  A    between atoms: _514  and  _517
REMARK  221  A    between atoms: _517  and  _518
REMARK  222  A    between atoms: _518  and  _519
REMARK  223  A    between atoms: _522  and  _524
REMARK  224  A    between atoms: _524  and  _525
REMARK  225  A    between atoms: _524  and  _527
REMARK  226  A    between atoms: _527  and  _528
REMARK  227  A    between atoms: _530  and  _532
REMARK  228  A    between atoms: _532  and  _533
REMARK  229  A    between atoms: _532  and  _535
REMARK  230  A    between atoms: _535  and  _536
REMARK  231  A    between atoms: _542  and  _544
REMARK  232  A    between atoms: _544  and  _545
REMARK  233  A    between atoms: _544  and  _547
REMARK  234  A    between atoms: _547  and  _548
REMARK  235  A    between atoms: _551  and  _553
REMARK  236  A    between atoms: _553  and  _554
REMARK  237  A    between atoms: _553  and  _556
REMARK  238  A    between atoms: _559  and  _561
REMARK  239  A    between atoms: _561  and  _562
REMARK  240  A    between atoms: _564  and  _566
REMARK  241  A    between atoms: _566  and  _567
REMARK  242  A    between atoms: _566  and  _569
REMARK  243  A    between atoms: _569  and  _570
REMARK  244  A    between atoms: _573  and  _575
REMARK  245  A    between atoms: _575  and  _576
REMARK  246  A    between atoms: _575  and  _578
REMARK  247  A    between atoms: _578  and  _579
REMARK  248  A    between atoms: _579  and  _580
REMARK  249  A    between atoms: _580  and  _581
REMARK  250  A    between atoms: _581  and  _582
REMARK  251  A    between atoms: _586  and  _588
REMARK  252  A    between atoms: _588  and  _589
REMARK  253  A    between atoms: _588  and  _591
REMARK                            x       y       z     vdW  Elec       q    Type
REMARK                         _______ _______ _______ _____ _____    ______ ____
ROOT
ATOM      1  O   HOH     1      11.043  -4.121 -21.607  0.00  0.00    +0.000 OA
ENDROOT
TORSDOF 0
