REMARK  Name = ../refined-set-2016/2xy9/2xy9_pocket.pdb
REMARK  304 active torsions:
REMARK  status: ('A' for Active; 'I' for Inactive)
REMARK    1  A    between atoms: _1  and  _3
REMARK    2  A    between atoms: _3  and  _4
REMARK    3  A    between atoms: _3  and  _6
REMARK    4  A    between atoms: _6  and  _7
REMARK    5  A    between atoms: _12  and  _14
REMARK    6  A    between atoms: _14  and  _15
REMARK    7  A    between atoms: _14  and  _17
REMARK    8  A    between atoms: _17  and  _18
REMARK    9  A    between atoms: _23  and  _25
REMARK   10  A    between atoms: _25  and  _26
REMARK   11  A    between atoms: _25  and  _28
REMARK   12  A    between atoms: _28  and  _29
REMARK   13  A    between atoms: _29  and  _30
REMARK   14  A    between atoms: _33  and  _35
REMARK   15  A    between atoms: _35  and  _36
REMARK   16  A    between atoms: _35  and  _38
REMARK   17  A    between atoms: _38  and  _39
REMARK   18  A    between atoms: _44  and  _45
REMARK   19  A    between atoms: _47  and  _49
REMARK   20  A    between atoms: _49  and  _50
REMARK   21  A    between atoms: _49  and  _52
REMARK   22  A    between atoms: _52  and  _53
REMARK   23  A    between atoms: _56  and  _58
REMARK   24  A    between atoms: _58  and  _59
REMARK   25  A    between atoms: _61  and  _63
REMARK   26  A    between atoms: _63  and  _64
REMARK   27  A    between atoms: _63  and  _66
REMARK   28  A    between atoms: _66  and  _67
REMARK   29  A    between atoms: _72  and  _74
REMARK   30  A    between atoms: _74  and  _75
REMARK   31  A    between atoms: _74  and  _77
REMARK   32  A    between atoms: _77  and  _78
REMARK   33  A    between atoms: _88  and  _90
REMARK   34  A    between atoms: _90  and  _91
REMARK   35  A    between atoms: _90  and  _93
REMARK   36  A    between atoms: _93  and  _94
REMARK   37  A    between atoms: _94  and  _95
REMARK   38  A    between atoms: _100  and  _102
REMARK   39  A    between atoms: _102  and  _103
REMARK   40  A    between atoms: _102  and  _105
REMARK   41  A    between atoms: _105  and  _106
REMARK   42  A    between atoms: _109  and  _111
REMARK   43  A    between atoms: _111  and  _112
REMARK   44  A    between atoms: _111  and  _114
REMARK   45  A    between atoms: _114  and  _115
REMARK   46  A    between atoms: _125  and  _127
REMARK   47  A    between atoms: _127  and  _128
REMARK   48  A    between atoms: _127  and  _130
REMARK   49  A    between atoms: _130  and  _131
REMARK   50  A    between atoms: _133  and  _135
REMARK   51  A    between atoms: _135  and  _136
REMARK   52  A    between atoms: _135  and  _138
REMARK   53  A    between atoms: _138  and  _139
REMARK   54  A    between atoms: _144  and  _146
REMARK   55  A    between atoms: _146  and  _147
REMARK   56  A    between atoms: _146  and  _149
REMARK   57  A    between atoms: _152  and  _154
REMARK   58  A    between atoms: _154  and  _155
REMARK   59  A    between atoms: _154  and  _157
REMARK   60  A    between atoms: _159  and  _161
REMARK   61  A    between atoms: _161  and  _162
REMARK   62  A    between atoms: _161  and  _164
REMARK   63  A    between atoms: _164  and  _165
REMARK   64  A    between atoms: _170  and  _172
REMARK   65  A    between atoms: _172  and  _173
REMARK   66  A    between atoms: _176  and  _178
REMARK   67  A    between atoms: _178  and  _179
REMARK   68  A    between atoms: _178  and  _181
REMARK   69  A    between atoms: _181  and  _182
REMARK   70  A    between atoms: _184  and  _186
REMARK   71  A    between atoms: _186  and  _187
REMARK   72  A    between atoms: _190  and  _192
REMARK   73  A    between atoms: _192  and  _193
REMARK   74  A    between atoms: _192  and  _195
REMARK   75  A    between atoms: _195  and  _196
REMARK   76  A    between atoms: _206  and  _208
REMARK   77  A    between atoms: _208  and  _209
REMARK   78  A    between atoms: _208  and  _211
REMARK   79  A    between atoms: _211  and  _212
REMARK   80  A    between atoms: _215  and  _217
REMARK   81  A    between atoms: _217  and  _218
REMARK   82  A    between atoms: _217  and  _220
REMARK   83  A    between atoms: _220  and  _221
REMARK   84  A    between atoms: _226  and  _227
REMARK   85  A    between atoms: _229  and  _231
REMARK   86  A    between atoms: _231  and  _232
REMARK   87  A    between atoms: _231  and  _234
REMARK   88  A    between atoms: _234  and  _235
REMARK   89  A    between atoms: _235  and  _236
REMARK   90  A    between atoms: _236  and  _237
REMARK   91  A    between atoms: _246  and  _248
REMARK   92  A    between atoms: _248  and  _249
REMARK   93  A    between atoms: _248  and  _251
REMARK   94  A    between atoms: _251  and  _252
REMARK   95  A    between atoms: _255  and  _257
REMARK   96  A    between atoms: _257  and  _258
REMARK   97  A    between atoms: _257  and  _260
REMARK   98  A    between atoms: _260  and  _261
REMARK   99  A    between atoms: _261  and  _262
REMARK  100  A    between atoms: _262  and  _263
REMARK  101  A    between atoms: _263  and  _264
REMARK  102  A    between atoms: _268  and  _270
REMARK  103  A    between atoms: _270  and  _271
REMARK  104  A    between atoms: _270  and  _273
REMARK  105  A    between atoms: _273  and  _274
REMARK  106  A    between atoms: _274  and  _275
REMARK  107  A    between atoms: _280  and  _282
REMARK  108  A    between atoms: _282  and  _283
REMARK  109  A    between atoms: _282  and  _285
REMARK  110  A    between atoms: _285  and  _286
REMARK  111  A    between atoms: _289  and  _291
REMARK  112  A    between atoms: _291  and  _292
REMARK  113  A    between atoms: _291  and  _294
REMARK  114  A    between atoms: _294  and  _295
REMARK  115  A    between atoms: _295  and  _296
REMARK  116  A    between atoms: _299  and  _301
REMARK  117  A    between atoms: _301  and  _302
REMARK  118  A    between atoms: _301  and  _304
REMARK  119  A    between atoms: _304  and  _305
REMARK  120  A    between atoms: _308  and  _310
REMARK  121  A    between atoms: _310  and  _311
REMARK  122  A    between atoms: _310  and  _313
REMARK  123  A    between atoms: _313  and  _314
REMARK  124  A    between atoms: _317  and  _319
REMARK  125  A    between atoms: _319  and  _320
REMARK  126  A    between atoms: _319  and  _322
REMARK  127  A    between atoms: _325  and  _327
REMARK  128  A    between atoms: _327  and  _328
REMARK  129  A    between atoms: _327  and  _330
REMARK  130  A    between atoms: _333  and  _335
REMARK  131  A    between atoms: _335  and  _336
REMARK  132  A    between atoms: _339  and  _341
REMARK  133  A    between atoms: _341  and  _342
REMARK  134  A    between atoms: _341  and  _344
REMARK  135  A    between atoms: _344  and  _345
REMARK  136  A    between atoms: _350  and  _352
REMARK  137  A    between atoms: _352  and  _353
REMARK  138  A    between atoms: _352  and  _355
REMARK  139  A    between atoms: _355  and  _356
REMARK  140  A    between atoms: _360  and  ZN_772
REMARK  141  A    between atoms: _361  and  _363
REMARK  142  A    between atoms: _363  and  _364
REMARK  143  A    between atoms: _363  and  _366
REMARK  144  A    between atoms: _366  and  _367
REMARK  145  A    between atoms: _367  and  _368
REMARK  146  A    between atoms: _371  and  _373
REMARK  147  A    between atoms: _373  and  _374
REMARK  148  A    between atoms: _373  and  _376
REMARK  149  A    between atoms: _376  and  _377
REMARK  150  A    between atoms: _377  and  _378
REMARK  151  A    between atoms: _380  and  _382
REMARK  152  A    between atoms: _382  and  _383
REMARK  153  A    between atoms: _382  and  _385
REMARK  154  A    between atoms: _385  and  _386
REMARK  155  A    between atoms: _390  and  ZN_772
REMARK  156  A    between atoms: _391  and  _393
REMARK  157  A    between atoms: _393  and  _394
REMARK  158  A    between atoms: _393  and  _396
REMARK  159  A    between atoms: _396  and  _397
REMARK  160  A    between atoms: _400  and  _402
REMARK  161  A    between atoms: _402  and  _403
REMARK  162  A    between atoms: _402  and  _405
REMARK  163  A    between atoms: _405  and  _406
REMARK  164  A    between atoms: _411  and  _412
REMARK  165  A    between atoms: _414  and  _416
REMARK  166  A    between atoms: _416  and  _417
REMARK  167  A    between atoms: _416  and  _419
REMARK  168  A    between atoms: _419  and  _420
REMARK  169  A    between atoms: _426  and  _428
REMARK  170  A    between atoms: _428  and  _429
REMARK  171  A    between atoms: _428  and  _431
REMARK  172  A    between atoms: _431  and  _432
REMARK  173  A    between atoms: _437  and  _438
REMARK  174  A    between atoms: _440  and  _442
REMARK  175  A    between atoms: _442  and  _443
REMARK  176  A    between atoms: _442  and  _445
REMARK  177  A    between atoms: _445  and  _446
REMARK  178  A    between atoms: _446  and  _447
REMARK  179  A    between atoms: _447  and  _448
REMARK  180  A    between atoms: _457  and  _459
REMARK  181  A    between atoms: _459  and  _460
REMARK  182  A    between atoms: _459  and  _462
REMARK  183  A    between atoms: _462  and  _463
REMARK  184  A    between atoms: _463  and  _464
REMARK  185  A    between atoms: _467  and  _469
REMARK  186  A    between atoms: _469  and  _470
REMARK  187  A    between atoms: _472  and  _474
REMARK  188  A    between atoms: _474  and  _475
REMARK  189  A    between atoms: _474  and  _477
REMARK  190  A    between atoms: _477  and  _478
REMARK  191  A    between atoms: _484  and  _485
REMARK  192  A    between atoms: _490  and  _492
REMARK  193  A    between atoms: _492  and  _493
REMARK  194  A    between atoms: _495  and  _497
REMARK  195  A    between atoms: _497  and  _498
REMARK  196  A    between atoms: _497  and  _500
REMARK  197  A    between atoms: _500  and  _501
REMARK  198  A    between atoms: _507  and  _509
REMARK  199  A    between atoms: _509  and  _510
REMARK  200  A    between atoms: _509  and  _512
REMARK  201  A    between atoms: _512  and  _513
REMARK  202  A    between atoms: _518  and  _520
REMARK  203  A    between atoms: _520  and  _521
REMARK  204  A    between atoms: _520  and  _523
REMARK  205  A    between atoms: _523  and  _524
REMARK  206  A    between atoms: _524  and  _525
REMARK  207  A    between atoms: _525  and  _526
REMARK  208  A    between atoms: _526  and  ZN_772
REMARK  209  A    between atoms: _528  and  _530
REMARK  210  A    between atoms: _530  and  _531
REMARK  211  A    between atoms: _534  and  _536
REMARK  212  A    between atoms: _536  and  _537
REMARK  213  A    between atoms: _539  and  _541
REMARK  214  A    between atoms: _541  and  _542
REMARK  215  A    between atoms: _541  and  _544
REMARK  216  A    between atoms: _544  and  _545
REMARK  217  A    between atoms: _548  and  _550
REMARK  218  A    between atoms: _550  and  _551
REMARK  219  A    between atoms: _554  and  _556
REMARK  220  A    between atoms: _556  and  _557
REMARK  221  A    between atoms: _556  and  _559
REMARK  222  A    between atoms: _559  and  _560
REMARK  223  A    between atoms: _563  and  _565
REMARK  224  A    between atoms: _565  and  _566
REMARK  225  A    between atoms: _565  and  _568
REMARK  226  A    between atoms: _568  and  _569
REMARK  227  A    between atoms: _569  and  _570
REMARK  228  A    between atoms: _570  and  _571
REMARK  229  A    between atoms: _571  and  _572
REMARK  230  A    between atoms: _576  and  _578
REMARK  231  A    between atoms: _578  and  _579
REMARK  232  A    between atoms: _578  and  _581
REMARK  233  A    between atoms: _581  and  _582
REMARK  234  A    between atoms: _588  and  _590
REMARK  235  A    between atoms: _590  and  _591
REMARK  236  A    between atoms: _590  and  _593
REMARK  237  A    between atoms: _593  and  _594
REMARK  238  A    between atoms: _600  and  _602
REMARK  239  A    between atoms: _602  and  _603
REMARK  240  A    between atoms: _602  and  _605
REMARK  241  A    between atoms: _605  and  _606
REMARK  242  A    between atoms: _608  and  _610
REMARK  243  A    between atoms: _610  and  _611
REMARK  244  A    between atoms: _610  and  _613
REMARK  245  A    between atoms: _616  and  _618
REMARK  246  A    between atoms: _618  and  _619
REMARK  247  A    between atoms: _618  and  _621
REMARK  248  A    between atoms: _621  and  _622
REMARK  249  A    between atoms: _622  and  _623
REMARK  250  A    between atoms: _623  and  _624
REMARK  251  A    between atoms: _624  and  _625
REMARK  252  A    between atoms: _629  and  _631
REMARK  253  A    between atoms: _631  and  _632
REMARK  254  A    between atoms: _631  and  _634
REMARK  255  A    between atoms: _634  and  _635
REMARK  256  A    between atoms: _641  and  _643
REMARK  257  A    between atoms: _643  and  _644
REMARK  258  A    between atoms: _643  and  _646
REMARK  259  A    between atoms: _646  and  _647
REMARK  260  A    between atoms: _652  and  _654
REMARK  261  A    between atoms: _654  and  _655
REMARK  262  A    between atoms: _654  and  _657
REMARK  263  A    between atoms: _657  and  _658
REMARK  264  A    between atoms: _660  and  _662
REMARK  265  A    between atoms: _662  and  _663
REMARK  266  A    between atoms: _662  and  _665
REMARK  267  A    between atoms: _665  and  _666
REMARK  268  A    between atoms: _668  and  _670
REMARK  269  A    between atoms: _670  and  _671
REMARK  270  A    between atoms: _670  and  _673
REMARK  271  A    between atoms: _677  and  _678
REMARK  272  A    between atoms: _683  and  _685
REMARK  273  A    between atoms: _685  and  _686
REMARK  274  A    between atoms: _685  and  _688
REMARK  275  A    between atoms: _688  and  _689
REMARK  276  A    between atoms: _694  and  _695
REMARK  277  A    between atoms: _697  and  _699
REMARK  278  A    between atoms: _699  and  _700
REMARK  279  A    between atoms: _699  and  _702
REMARK  280  A    between atoms: _702  and  _703
REMARK  281  A    between atoms: _703  and  _704
REMARK  282  A    between atoms: _704  and  _705
REMARK  283  A    between atoms: _714  and  _716
REMARK  284  A    between atoms: _716  and  _717
REMARK  285  A    between atoms: _716  and  _719
REMARK  286  A    between atoms: _719  and  _720
REMARK  287  A    between atoms: _725  and  _726
REMARK  288  A    between atoms: _728  and  _730
REMARK  289  A    between atoms: _730  and  _731
REMARK  290  A    between atoms: _730  and  _733
REMARK  291  A    between atoms: _733  and  _734
REMARK  292  A    between atoms: _740  and  _742
REMARK  293  A    between atoms: _742  and  _743
REMARK  294  A    between atoms: _742  and  _745
REMARK  295  A    between atoms: _745  and  _746
REMARK  296  A    between atoms: _748  and  _750
REMARK  297  A    between atoms: _750  and  _751
REMARK  298  A    between atoms: _750  and  _753
REMARK  299  A    between atoms: _753  and  _754
REMARK  300  A    between atoms: _760  and  _762
REMARK  301  A    between atoms: _762  and  _763
REMARK  302  A    between atoms: _762  and  _765
REMARK  303  A    between atoms: _765  and  _766
REMARK  304  A    between atoms: _766  and  _767
REMARK                            x       y       z     vdW  Elec       q    Type
REMARK                         _______ _______ _______ _____ _____    ______ ____
ROOT
ATOM      1  CB  ASN A   1      12.112  -3.411  -6.511  0.00  0.00    +0.110 C 
ENDROOT
BRANCH   1   2
ATOM      2  CG  ASN A   1      11.322  -3.471  -7.808  0.00  0.00    +0.221 C 
ATOM      3  OD1 ASN A   1      10.394  -4.272  -7.965  0.00  0.00    -0.275 OA
ATOM      4  ND2 ASN A   1      11.676  -2.596  -8.747  0.00  0.00    -0.329 N 
ATOM      5 HD21 ASN A   1      12.463  -1.939  -8.575  0.00  0.00    +0.145 HD
ATOM      6 HD22 ASN A   1      11.165  -2.570  -9.653  0.00  0.00    +0.145 HD
ENDBRANCH   1   2
BRANCH   1   7
ATOM      7  CA  ASN A   1      12.000  -4.692  -5.676  0.00  0.00    +0.142 C 
BRANCH   7   8
ATOM      8  N   ASN A   1      12.365  -4.408  -4.290  0.00  0.00    -0.239 NA
ATOM      9  H   ASN A   1      12.681  -3.449  -4.042  0.00  0.00    +0.142 HD
ENDBRANCH   7   8
BRANCH   7  10
ATOM     10  C   ASN A   1      12.869  -5.813  -6.260  0.00  0.00    +0.225 C 
ATOM     11  O   ASN A   1      12.353  -6.754  -6.872  0.00  0.00    -0.287 OA
ENDBRANCH   7  10
ENDBRANCH   1   7
TORSDOF 4
REMARK  Name = ../refined-set-2016/2xy9/2xy9_pocket.pdb
REMARK  304 active torsions:
REMARK  status: ('A' for Active; 'I' for Inactive)
REMARK    1  A    between atoms: _1  and  _3
REMARK    2  A    between atoms: _3  and  _4
REMARK    3  A    between atoms: _3  and  _6
REMARK    4  A    between atoms: _6  and  _7
REMARK    5  A    between atoms: _12  and  _14
REMARK    6  A    between atoms: _14  and  _15
REMARK    7  A    between atoms: _14  and  _17
REMARK    8  A    between atoms: _17  and  _18
REMARK    9  A    between atoms: _23  and  _25
REMARK   10  A    between atoms: _25  and  _26
REMARK   11  A    between atoms: _25  and  _28
REMARK   12  A    between atoms: _28  and  _29
REMARK   13  A    between atoms: _29  and  _30
REMARK   14  A    between atoms: _33  and  _35
REMARK   15  A    between atoms: _35  and  _36
REMARK   16  A    between atoms: _35  and  _38
REMARK   17  A    between atoms: _38  and  _39
REMARK   18  A    between atoms: _44  and  _45
REMARK   19  A    between atoms: _47  and  _49
REMARK   20  A    between atoms: _49  and  _50
REMARK   21  A    between atoms: _49  and  _52
REMARK   22  A    between atoms: _52  and  _53
REMARK   23  A    between atoms: _56  and  _58
REMARK   24  A    between atoms: _58  and  _59
REMARK   25  A    between atoms: _61  and  _63
REMARK   26  A    between atoms: _63  and  _64
REMARK   27  A    between atoms: _63  and  _66
REMARK   28  A    between atoms: _66  and  _67
REMARK   29  A    between atoms: _72  and  _74
REMARK   30  A    between atoms: _74  and  _75
REMARK   31  A    between atoms: _74  and  _77
REMARK   32  A    between atoms: _77  and  _78
REMARK   33  A    between atoms: _88  and  _90
REMARK   34  A    between atoms: _90  and  _91
REMARK   35  A    between atoms: _90  and  _93
REMARK   36  A    between atoms: _93  and  _94
REMARK   37  A    between atoms: _94  and  _95
REMARK   38  A    between atoms: _100  and  _102
REMARK   39  A    between atoms: _102  and  _103
REMARK   40  A    between atoms: _102  and  _105
REMARK   41  A    between atoms: _105  and  _106
REMARK   42  A    between atoms: _109  and  _111
REMARK   43  A    between atoms: _111  and  _112
REMARK   44  A    between atoms: _111  and  _114
REMARK   45  A    between atoms: _114  and  _115
REMARK   46  A    between atoms: _125  and  _127
REMARK   47  A    between atoms: _127  and  _128
REMARK   48  A    between atoms: _127  and  _130
REMARK   49  A    between atoms: _130  and  _131
REMARK   50  A    between atoms: _133  and  _135
REMARK   51  A    between atoms: _135  and  _136
REMARK   52  A    between atoms: _135  and  _138
REMARK   53  A    between atoms: _138  and  _139
REMARK   54  A    between atoms: _144  and  _146
REMARK   55  A    between atoms: _146  and  _147
REMARK   56  A    between atoms: _146  and  _149
REMARK   57  A    between atoms: _152  and  _154
REMARK   58  A    between atoms: _154  and  _155
REMARK   59  A    between atoms: _154  and  _157
REMARK   60  A    between atoms: _159  and  _161
REMARK   61  A    between atoms: _161  and  _162
REMARK   62  A    between atoms: _161  and  _164
REMARK   63  A    between atoms: _164  and  _165
REMARK   64  A    between atoms: _170  and  _172
REMARK   65  A    between atoms: _172  and  _173
REMARK   66  A    between atoms: _176  and  _178
REMARK   67  A    between atoms: _178  and  _179
REMARK   68  A    between atoms: _178  and  _181
REMARK   69  A    between atoms: _181  and  _182
REMARK   70  A    between atoms: _184  and  _186
REMARK   71  A    between atoms: _186  and  _187
REMARK   72  A    between atoms: _190  and  _192
REMARK   73  A    between atoms: _192  and  _193
REMARK   74  A    between atoms: _192  and  _195
REMARK   75  A    between atoms: _195  and  _196
REMARK   76  A    between atoms: _206  and  _208
REMARK   77  A    between atoms: _208  and  _209
REMARK   78  A    between atoms: _208  and  _211
REMARK   79  A    between atoms: _211  and  _212
REMARK   80  A    between atoms: _215  and  _217
REMARK   81  A    between atoms: _217  and  _218
REMARK   82  A    between atoms: _217  and  _220
REMARK   83  A    between atoms: _220  and  _221
REMARK   84  A    between atoms: _226  and  _227
REMARK   85  A    between atoms: _229  and  _231
REMARK   86  A    between atoms: _231  and  _232
REMARK   87  A    between atoms: _231  and  _234
REMARK   88  A    between atoms: _234  and  _235
REMARK   89  A    between atoms: _235  and  _236
REMARK   90  A    between atoms: _236  and  _237
REMARK   91  A    between atoms: _246  and  _248
REMARK   92  A    between atoms: _248  and  _249
REMARK   93  A    between atoms: _248  and  _251
REMARK   94  A    between atoms: _251  and  _252
REMARK   95  A    between atoms: _255  and  _257
REMARK   96  A    between atoms: _257  and  _258
REMARK   97  A    between atoms: _257  and  _260
REMARK   98  A    between atoms: _260  and  _261
REMARK   99  A    between atoms: _261  and  _262
REMARK  100  A    between atoms: _262  and  _263
REMARK  101  A    between atoms: _263  and  _264
REMARK  102  A    between atoms: _268  and  _270
REMARK  103  A    between atoms: _270  and  _271
REMARK  104  A    between atoms: _270  and  _273
REMARK  105  A    between atoms: _273  and  _274
REMARK  106  A    between atoms: _274  and  _275
REMARK  107  A    between atoms: _280  and  _282
REMARK  108  A    between atoms: _282  and  _283
REMARK  109  A    between atoms: _282  and  _285
REMARK  110  A    between atoms: _285  and  _286
REMARK  111  A    between atoms: _289  and  _291
REMARK  112  A    between atoms: _291  and  _292
REMARK  113  A    between atoms: _291  and  _294
REMARK  114  A    between atoms: _294  and  _295
REMARK  115  A    between atoms: _295  and  _296
REMARK  116  A    between atoms: _299  and  _301
REMARK  117  A    between atoms: _301  and  _302
REMARK  118  A    between atoms: _301  and  _304
REMARK  119  A    between atoms: _304  and  _305
REMARK  120  A    between atoms: _308  and  _310
REMARK  121  A    between atoms: _310  and  _311
REMARK  122  A    between atoms: _310  and  _313
REMARK  123  A    between atoms: _313  and  _314
REMARK  124  A    between atoms: _317  and  _319
REMARK  125  A    between atoms: _319  and  _320
REMARK  126  A    between atoms: _319  and  _322
REMARK  127  A    between atoms: _325  and  _327
REMARK  128  A    between atoms: _327  and  _328
REMARK  129  A    between atoms: _327  and  _330
REMARK  130  A    between atoms: _333  and  _335
REMARK  131  A    between atoms: _335  and  _336
REMARK  132  A    between atoms: _339  and  _341
REMARK  133  A    between atoms: _341  and  _342
REMARK  134  A    between atoms: _341  and  _344
REMARK  135  A    between atoms: _344  and  _345
REMARK  136  A    between atoms: _350  and  _352
REMARK  137  A    between atoms: _352  and  _353
REMARK  138  A    between atoms: _352  and  _355
REMARK  139  A    between atoms: _355  and  _356
REMARK  140  A    between atoms: _360  and  ZN_772
REMARK  141  A    between atoms: _361  and  _363
REMARK  142  A    between atoms: _363  and  _364
REMARK  143  A    between atoms: _363  and  _366
REMARK  144  A    between atoms: _366  and  _367
REMARK  145  A    between atoms: _367  and  _368
REMARK  146  A    between atoms: _371  and  _373
REMARK  147  A    between atoms: _373  and  _374
REMARK  148  A    between atoms: _373  and  _376
REMARK  149  A    between atoms: _376  and  _377
REMARK  150  A    between atoms: _377  and  _378
REMARK  151  A    between atoms: _380  and  _382
REMARK  152  A    between atoms: _382  and  _383
REMARK  153  A    between atoms: _382  and  _385
REMARK  154  A    between atoms: _385  and  _386
REMARK  155  A    between atoms: _390  and  ZN_772
REMARK  156  A    between atoms: _391  and  _393
REMARK  157  A    between atoms: _393  and  _394
REMARK  158  A    between atoms: _393  and  _396
REMARK  159  A    between atoms: _396  and  _397
REMARK  160  A    between atoms: _400  and  _402
REMARK  161  A    between atoms: _402  and  _403
REMARK  162  A    between atoms: _402  and  _405
REMARK  163  A    between atoms: _405  and  _406
REMARK  164  A    between atoms: _411  and  _412
REMARK  165  A    between atoms: _414  and  _416
REMARK  166  A    between atoms: _416  and  _417
REMARK  167  A    between atoms: _416  and  _419
REMARK  168  A    between atoms: _419  and  _420
REMARK  169  A    between atoms: _426  and  _428
REMARK  170  A    between atoms: _428  and  _429
REMARK  171  A    between atoms: _428  and  _431
REMARK  172  A    between atoms: _431  and  _432
REMARK  173  A    between atoms: _437  and  _438
REMARK  174  A    between atoms: _440  and  _442
REMARK  175  A    between atoms: _442  and  _443
REMARK  176  A    between atoms: _442  and  _445
REMARK  177  A    between atoms: _445  and  _446
REMARK  178  A    between atoms: _446  and  _447
REMARK  179  A    between atoms: _447  and  _448
REMARK  180  A    between atoms: _457  and  _459
REMARK  181  A    between atoms: _459  and  _460
REMARK  182  A    between atoms: _459  and  _462
REMARK  183  A    between atoms: _462  and  _463
REMARK  184  A    between atoms: _463  and  _464
REMARK  185  A    between atoms: _467  and  _469
REMARK  186  A    between atoms: _469  and  _470
REMARK  187  A    between atoms: _472  and  _474
REMARK  188  A    between atoms: _474  and  _475
REMARK  189  A    between atoms: _474  and  _477
REMARK  190  A    between atoms: _477  and  _478
REMARK  191  A    between atoms: _484  and  _485
REMARK  192  A    between atoms: _490  and  _492
REMARK  193  A    between atoms: _492  and  _493
REMARK  194  A    between atoms: _495  and  _497
REMARK  195  A    between atoms: _497  and  _498
REMARK  196  A    between atoms: _497  and  _500
REMARK  197  A    between atoms: _500  and  _501
REMARK  198  A    between atoms: _507  and  _509
REMARK  199  A    between atoms: _509  and  _510
REMARK  200  A    between atoms: _509  and  _512
REMARK  201  A    between atoms: _512  and  _513
REMARK  202  A    between atoms: _518  and  _520
REMARK  203  A    between atoms: _520  and  _521
REMARK  204  A    between atoms: _520  and  _523
REMARK  205  A    between atoms: _523  and  _524
REMARK  206  A    between atoms: _524  and  _525
REMARK  207  A    between atoms: _525  and  _526
REMARK  208  A    between atoms: _526  and  ZN_772
REMARK  209  A    between atoms: _528  and  _530
REMARK  210  A    between atoms: _530  and  _531
REMARK  211  A    between atoms: _534  and  _536
REMARK  212  A    between atoms: _536  and  _537
REMARK  213  A    between atoms: _539  and  _541
REMARK  214  A    between atoms: _541  and  _542
REMARK  215  A    between atoms: _541  and  _544
REMARK  216  A    between atoms: _544  and  _545
REMARK  217  A    between atoms: _548  and  _550
REMARK  218  A    between atoms: _550  and  _551
REMARK  219  A    between atoms: _554  and  _556
REMARK  220  A    between atoms: _556  and  _557
REMARK  221  A    between atoms: _556  and  _559
REMARK  222  A    between atoms: _559  and  _560
REMARK  223  A    between atoms: _563  and  _565
REMARK  224  A    between atoms: _565  and  _566
REMARK  225  A    between atoms: _565  and  _568
REMARK  226  A    between atoms: _568  and  _569
REMARK  227  A    between atoms: _569  and  _570
REMARK  228  A    between atoms: _570  and  _571
REMARK  229  A    between atoms: _571  and  _572
REMARK  230  A    between atoms: _576  and  _578
REMARK  231  A    between atoms: _578  and  _579
REMARK  232  A    between atoms: _578  and  _581
REMARK  233  A    between atoms: _581  and  _582
REMARK  234  A    between atoms: _588  and  _590
REMARK  235  A    between atoms: _590  and  _591
REMARK  236  A    between atoms: _590  and  _593
REMARK  237  A    between atoms: _593  and  _594
REMARK  238  A    between atoms: _600  and  _602
REMARK  239  A    between atoms: _602  and  _603
REMARK  240  A    between atoms: _602  and  _605
REMARK  241  A    between atoms: _605  and  _606
REMARK  242  A    between atoms: _608  and  _610
REMARK  243  A    between atoms: _610  and  _611
REMARK  244  A    between atoms: _610  and  _613
REMARK  245  A    between atoms: _616  and  _618
REMARK  246  A    between atoms: _618  and  _619
REMARK  247  A    between atoms: _618  and  _621
REMARK  248  A    between atoms: _621  and  _622
REMARK  249  A    between atoms: _622  and  _623
REMARK  250  A    between atoms: _623  and  _624
REMARK  251  A    between atoms: _624  and  _625
REMARK  252  A    between atoms: _629  and  _631
REMARK  253  A    between atoms: _631  and  _632
REMARK  254  A    between atoms: _631  and  _634
REMARK  255  A    between atoms: _634  and  _635
REMARK  256  A    between atoms: _641  and  _643
REMARK  257  A    between atoms: _643  and  _644
REMARK  258  A    between atoms: _643  and  _646
REMARK  259  A    between atoms: _646  and  _647
REMARK  260  A    between atoms: _652  and  _654
REMARK  261  A    between atoms: _654  and  _655
REMARK  262  A    between atoms: _654  and  _657
REMARK  263  A    between atoms: _657  and  _658
REMARK  264  A    between atoms: _660  and  _662
REMARK  265  A    between atoms: _662  and  _663
REMARK  266  A    between atoms: _662  and  _665
REMARK  267  A    between atoms: _665  and  _666
REMARK  268  A    between atoms: _668  and  _670
REMARK  269  A    between atoms: _670  and  _671
REMARK  270  A    between atoms: _670  and  _673
REMARK  271  A    between atoms: _677  and  _678
REMARK  272  A    between atoms: _683  and  _685
REMARK  273  A    between atoms: _685  and  _686
REMARK  274  A    between atoms: _685  and  _688
REMARK  275  A    between atoms: _688  and  _689
REMARK  276  A    between atoms: _694  and  _695
REMARK  277  A    between atoms: _697  and  _699
REMARK  278  A    between atoms: _699  and  _700
REMARK  279  A    between atoms: _699  and  _702
REMARK  280  A    between atoms: _702  and  _703
REMARK  281  A    between atoms: _703  and  _704
REMARK  282  A    between atoms: _704  and  _705
REMARK  283  A    between atoms: _714  and  _716
REMARK  284  A    between atoms: _716  and  _717
REMARK  285  A    between atoms: _716  and  _719
REMARK  286  A    between atoms: _719  and  _720
REMARK  287  A    between atoms: _725  and  _726
REMARK  288  A    between atoms: _728  and  _730
REMARK  289  A    between atoms: _730  and  _731
REMARK  290  A    between atoms: _730  and  _733
REMARK  291  A    between atoms: _733  and  _734
REMARK  292  A    between atoms: _740  and  _742
REMARK  293  A    between atoms: _742  and  _743
REMARK  294  A    between atoms: _742  and  _745
REMARK  295  A    between atoms: _745  and  _746
REMARK  296  A    between atoms: _748  and  _750
REMARK  297  A    between atoms: _750  and  _751
REMARK  298  A    between atoms: _750  and  _753
REMARK  299  A    between atoms: _753  and  _754
REMARK  300  A    between atoms: _760  and  _762
REMARK  301  A    between atoms: _762  and  _763
REMARK  302  A    between atoms: _762  and  _765
REMARK  303  A    between atoms: _765  and  _766
REMARK  304  A    between atoms: _766  and  _767
REMARK                            x       y       z     vdW  Elec       q    Type
REMARK                         _______ _______ _______ _____ _____    ______ ____
ROOT
ATOM      1  CB  ASN A   1      12.804  -8.867  -9.674  0.00  0.00    +0.110 C 
ENDROOT
BRANCH   1   2
ATOM      2  CG  ASN A   1      11.741  -7.988 -10.313  0.00  0.00    +0.221 C 
ATOM      3  ND2 ASN A   1      11.053  -7.197  -9.496  0.00  0.00    -0.329 N 
ATOM      4 HD21 ASN A   1      11.257  -7.199  -8.476  0.00  0.00    +0.145 HD
ATOM      5 HD22 ASN A   1      10.311  -6.576  -9.877  0.00  0.00    +0.145 HD
ATOM      6  OD1 ASN A   1      11.539  -8.023 -11.528  0.00  0.00    -0.275 OA
ENDBRANCH   1   2
BRANCH   1   7
ATOM      7  CA  ASN A   1      12.208 -10.049  -8.895  0.00  0.00    +0.142 C 
BRANCH   7   8
ATOM      8  N   ASN A   1      11.932  -9.682  -7.505  0.00  0.00    -0.239 NA
ATOM      9  H   ASN A   1      12.247  -8.753  -7.158  0.00  0.00    +0.142 HD
ENDBRANCH   7   8
BRANCH   7  10
ATOM     10  C   ASN A   1      13.112 -11.276  -9.028  0.00  0.00    +0.225 C 
ATOM     11  O   ASN A   1      12.984 -12.044  -9.990  0.00  0.00    -0.287 OA
ENDBRANCH   7  10
ENDBRANCH   1   7
TORSDOF 4
REMARK  Name = ../refined-set-2016/2xy9/2xy9_pocket.pdb
REMARK  304 active torsions:
REMARK  status: ('A' for Active; 'I' for Inactive)
REMARK    1  A    between atoms: _1  and  _3
REMARK    2  A    between atoms: _3  and  _4
REMARK    3  A    between atoms: _3  and  _6
REMARK    4  A    between atoms: _6  and  _7
REMARK    5  A    between atoms: _12  and  _14
REMARK    6  A    between atoms: _14  and  _15
REMARK    7  A    between atoms: _14  and  _17
REMARK    8  A    between atoms: _17  and  _18
REMARK    9  A    between atoms: _23  and  _25
REMARK   10  A    between atoms: _25  and  _26
REMARK   11  A    between atoms: _25  and  _28
REMARK   12  A    between atoms: _28  and  _29
REMARK   13  A    between atoms: _29  and  _30
REMARK   14  A    between atoms: _33  and  _35
REMARK   15  A    between atoms: _35  and  _36
REMARK   16  A    between atoms: _35  and  _38
REMARK   17  A    between atoms: _38  and  _39
REMARK   18  A    between atoms: _44  and  _45
REMARK   19  A    between atoms: _47  and  _49
REMARK   20  A    between atoms: _49  and  _50
REMARK   21  A    between atoms: _49  and  _52
REMARK   22  A    between atoms: _52  and  _53
REMARK   23  A    between atoms: _56  and  _58
REMARK   24  A    between atoms: _58  and  _59
REMARK   25  A    between atoms: _61  and  _63
REMARK   26  A    between atoms: _63  and  _64
REMARK   27  A    between atoms: _63  and  _66
REMARK   28  A    between atoms: _66  and  _67
REMARK   29  A    between atoms: _72  and  _74
REMARK   30  A    between atoms: _74  and  _75
REMARK   31  A    between atoms: _74  and  _77
REMARK   32  A    between atoms: _77  and  _78
REMARK   33  A    between atoms: _88  and  _90
REMARK   34  A    between atoms: _90  and  _91
REMARK   35  A    between atoms: _90  and  _93
REMARK   36  A    between atoms: _93  and  _94
REMARK   37  A    between atoms: _94  and  _95
REMARK   38  A    between atoms: _100  and  _102
REMARK   39  A    between atoms: _102  and  _103
REMARK   40  A    between atoms: _102  and  _105
REMARK   41  A    between atoms: _105  and  _106
REMARK   42  A    between atoms: _109  and  _111
REMARK   43  A    between atoms: _111  and  _112
REMARK   44  A    between atoms: _111  and  _114
REMARK   45  A    between atoms: _114  and  _115
REMARK   46  A    between atoms: _125  and  _127
REMARK   47  A    between atoms: _127  and  _128
REMARK   48  A    between atoms: _127  and  _130
REMARK   49  A    between atoms: _130  and  _131
REMARK   50  A    between atoms: _133  and  _135
REMARK   51  A    between atoms: _135  and  _136
REMARK   52  A    between atoms: _135  and  _138
REMARK   53  A    between atoms: _138  and  _139
REMARK   54  A    between atoms: _144  and  _146
REMARK   55  A    between atoms: _146  and  _147
REMARK   56  A    between atoms: _146  and  _149
REMARK   57  A    between atoms: _152  and  _154
REMARK   58  A    between atoms: _154  and  _155
REMARK   59  A    between atoms: _154  and  _157
REMARK   60  A    between atoms: _159  and  _161
REMARK   61  A    between atoms: _161  and  _162
REMARK   62  A    between atoms: _161  and  _164
REMARK   63  A    between atoms: _164  and  _165
REMARK   64  A    between atoms: _170  and  _172
REMARK   65  A    between atoms: _172  and  _173
REMARK   66  A    between atoms: _176  and  _178
REMARK   67  A    between atoms: _178  and  _179
REMARK   68  A    between atoms: _178  and  _181
REMARK   69  A    between atoms: _181  and  _182
REMARK   70  A    between atoms: _184  and  _186
REMARK   71  A    between atoms: _186  and  _187
REMARK   72  A    between atoms: _190  and  _192
REMARK   73  A    between atoms: _192  and  _193
REMARK   74  A    between atoms: _192  and  _195
REMARK   75  A    between atoms: _195  and  _196
REMARK   76  A    between atoms: _206  and  _208
REMARK   77  A    between atoms: _208  and  _209
REMARK   78  A    between atoms: _208  and  _211
REMARK   79  A    between atoms: _211  and  _212
REMARK   80  A    between atoms: _215  and  _217
REMARK   81  A    between atoms: _217  and  _218
REMARK   82  A    between atoms: _217  and  _220
REMARK   83  A    between atoms: _220  and  _221
REMARK   84  A    between atoms: _226  and  _227
REMARK   85  A    between atoms: _229  and  _231
REMARK   86  A    between atoms: _231  and  _232
REMARK   87  A    between atoms: _231  and  _234
REMARK   88  A    between atoms: _234  and  _235
REMARK   89  A    between atoms: _235  and  _236
REMARK   90  A    between atoms: _236  and  _237
REMARK   91  A    between atoms: _246  and  _248
REMARK   92  A    between atoms: _248  and  _249
REMARK   93  A    between atoms: _248  and  _251
REMARK   94  A    between atoms: _251  and  _252
REMARK   95  A    between atoms: _255  and  _257
REMARK   96  A    between atoms: _257  and  _258
REMARK   97  A    between atoms: _257  and  _260
REMARK   98  A    between atoms: _260  and  _261
REMARK   99  A    between atoms: _261  and  _262
REMARK  100  A    between atoms: _262  and  _263
REMARK  101  A    between atoms: _263  and  _264
REMARK  102  A    between atoms: _268  and  _270
REMARK  103  A    between atoms: _270  and  _271
REMARK  104  A    between atoms: _270  and  _273
REMARK  105  A    between atoms: _273  and  _274
REMARK  106  A    between atoms: _274  and  _275
REMARK  107  A    between atoms: _280  and  _282
REMARK  108  A    between atoms: _282  and  _283
REMARK  109  A    between atoms: _282  and  _285
REMARK  110  A    between atoms: _285  and  _286
REMARK  111  A    between atoms: _289  and  _291
REMARK  112  A    between atoms: _291  and  _292
REMARK  113  A    between atoms: _291  and  _294
REMARK  114  A    between atoms: _294  and  _295
REMARK  115  A    between atoms: _295  and  _296
REMARK  116  A    between atoms: _299  and  _301
REMARK  117  A    between atoms: _301  and  _302
REMARK  118  A    between atoms: _301  and  _304
REMARK  119  A    between atoms: _304  and  _305
REMARK  120  A    between atoms: _308  and  _310
REMARK  121  A    between atoms: _310  and  _311
REMARK  122  A    between atoms: _310  and  _313
REMARK  123  A    between atoms: _313  and  _314
REMARK  124  A    between atoms: _317  and  _319
REMARK  125  A    between atoms: _319  and  _320
REMARK  126  A    between atoms: _319  and  _322
REMARK  127  A    between atoms: _325  and  _327
REMARK  128  A    between atoms: _327  and  _328
REMARK  129  A    between atoms: _327  and  _330
REMARK  130  A    between atoms: _333  and  _335
REMARK  131  A    between atoms: _335  and  _336
REMARK  132  A    between atoms: _339  and  _341
REMARK  133  A    between atoms: _341  and  _342
REMARK  134  A    between atoms: _341  and  _344
REMARK  135  A    between atoms: _344  and  _345
REMARK  136  A    between atoms: _350  and  _352
REMARK  137  A    between atoms: _352  and  _353
REMARK  138  A    between atoms: _352  and  _355
REMARK  139  A    between atoms: _355  and  _356
REMARK  140  A    between atoms: _360  and  ZN_772
REMARK  141  A    between atoms: _361  and  _363
REMARK  142  A    between atoms: _363  and  _364
REMARK  143  A    between atoms: _363  and  _366
REMARK  144  A    between atoms: _366  and  _367
REMARK  145  A    between atoms: _367  and  _368
REMARK  146  A    between atoms: _371  and  _373
REMARK  147  A    between atoms: _373  and  _374
REMARK  148  A    between atoms: _373  and  _376
REMARK  149  A    between atoms: _376  and  _377
REMARK  150  A    between atoms: _377  and  _378
REMARK  151  A    between atoms: _380  and  _382
REMARK  152  A    between atoms: _382  and  _383
REMARK  153  A    between atoms: _382  and  _385
REMARK  154  A    between atoms: _385  and  _386
REMARK  155  A    between atoms: _390  and  ZN_772
REMARK  156  A    between atoms: _391  and  _393
REMARK  157  A    between atoms: _393  and  _394
REMARK  158  A    between atoms: _393  and  _396
REMARK  159  A    between atoms: _396  and  _397
REMARK  160  A    between atoms: _400  and  _402
REMARK  161  A    between atoms: _402  and  _403
REMARK  162  A    between atoms: _402  and  _405
REMARK  163  A    between atoms: _405  and  _406
REMARK  164  A    between atoms: _411  and  _412
REMARK  165  A    between atoms: _414  and  _416
REMARK  166  A    between atoms: _416  and  _417
REMARK  167  A    between atoms: _416  and  _419
REMARK  168  A    between atoms: _419  and  _420
REMARK  169  A    between atoms: _426  and  _428
REMARK  170  A    between atoms: _428  and  _429
REMARK  171  A    between atoms: _428  and  _431
REMARK  172  A    between atoms: _431  and  _432
REMARK  173  A    between atoms: _437  and  _438
REMARK  174  A    between atoms: _440  and  _442
REMARK  175  A    between atoms: _442  and  _443
REMARK  176  A    between atoms: _442  and  _445
REMARK  177  A    between atoms: _445  and  _446
REMARK  178  A    between atoms: _446  and  _447
REMARK  179  A    between atoms: _447  and  _448
REMARK  180  A    between atoms: _457  and  _459
REMARK  181  A    between atoms: _459  and  _460
REMARK  182  A    between atoms: _459  and  _462
REMARK  183  A    between atoms: _462  and  _463
REMARK  184  A    between atoms: _463  and  _464
REMARK  185  A    between atoms: _467  and  _469
REMARK  186  A    between atoms: _469  and  _470
REMARK  187  A    between atoms: _472  and  _474
REMARK  188  A    between atoms: _474  and  _475
REMARK  189  A    between atoms: _474  and  _477
REMARK  190  A    between atoms: _477  and  _478
REMARK  191  A    between atoms: _484  and  _485
REMARK  192  A    between atoms: _490  and  _492
REMARK  193  A    between atoms: _492  and  _493
REMARK  194  A    between atoms: _495  and  _497
REMARK  195  A    between atoms: _497  and  _498
REMARK  196  A    between atoms: _497  and  _500
REMARK  197  A    between atoms: _500  and  _501
REMARK  198  A    between atoms: _507  and  _509
REMARK  199  A    between atoms: _509  and  _510
REMARK  200  A    between atoms: _509  and  _512
REMARK  201  A    between atoms: _512  and  _513
REMARK  202  A    between atoms: _518  and  _520
REMARK  203  A    between atoms: _520  and  _521
REMARK  204  A    between atoms: _520  and  _523
REMARK  205  A    between atoms: _523  and  _524
REMARK  206  A    between atoms: _524  and  _525
REMARK  207  A    between atoms: _525  and  _526
REMARK  208  A    between atoms: _526  and  ZN_772
REMARK  209  A    between atoms: _528  and  _530
REMARK  210  A    between atoms: _530  and  _531
REMARK  211  A    between atoms: _534  and  _536
REMARK  212  A    between atoms: _536  and  _537
REMARK  213  A    between atoms: _539  and  _541
REMARK  214  A    between atoms: _541  and  _542
REMARK  215  A    between atoms: _541  and  _544
REMARK  216  A    between atoms: _544  and  _545
REMARK  217  A    between atoms: _548  and  _550
REMARK  218  A    between atoms: _550  and  _551
REMARK  219  A    between atoms: _554  and  _556
REMARK  220  A    between atoms: _556  and  _557
REMARK  221  A    between atoms: _556  and  _559
REMARK  222  A    between atoms: _559  and  _560
REMARK  223  A    between atoms: _563  and  _565
REMARK  224  A    between atoms: _565  and  _566
REMARK  225  A    between atoms: _565  and  _568
REMARK  226  A    between atoms: _568  and  _569
REMARK  227  A    between atoms: _569  and  _570
REMARK  228  A    between atoms: _570  and  _571
REMARK  229  A    between atoms: _571  and  _572
REMARK  230  A    between atoms: _576  and  _578
REMARK  231  A    between atoms: _578  and  _579
REMARK  232  A    between atoms: _578  and  _581
REMARK  233  A    between atoms: _581  and  _582
REMARK  234  A    between atoms: _588  and  _590
REMARK  235  A    between atoms: _590  and  _591
REMARK  236  A    between atoms: _590  and  _593
REMARK  237  A    between atoms: _593  and  _594
REMARK  238  A    between atoms: _600  and  _602
REMARK  239  A    between atoms: _602  and  _603
REMARK  240  A    between atoms: _602  and  _605
REMARK  241  A    between atoms: _605  and  _606
REMARK  242  A    between atoms: _608  and  _610
REMARK  243  A    between atoms: _610  and  _611
REMARK  244  A    between atoms: _610  and  _613
REMARK  245  A    between atoms: _616  and  _618
REMARK  246  A    between atoms: _618  and  _619
REMARK  247  A    between atoms: _618  and  _621
REMARK  248  A    between atoms: _621  and  _622
REMARK  249  A    between atoms: _622  and  _623
REMARK  250  A    between atoms: _623  and  _624
REMARK  251  A    between atoms: _624  and  _625
REMARK  252  A    between atoms: _629  and  _631
REMARK  253  A    between atoms: _631  and  _632
REMARK  254  A    between atoms: _631  and  _634
REMARK  255  A    between atoms: _634  and  _635
REMARK  256  A    between atoms: _641  and  _643
REMARK  257  A    between atoms: _643  and  _644
REMARK  258  A    between atoms: _643  and  _646
REMARK  259  A    between atoms: _646  and  _647
REMARK  260  A    between atoms: _652  and  _654
REMARK  261  A    between atoms: _654  and  _655
REMARK  262  A    between atoms: _654  and  _657
REMARK  263  A    between atoms: _657  and  _658
REMARK  264  A    between atoms: _660  and  _662
REMARK  265  A    between atoms: _662  and  _663
REMARK  266  A    between atoms: _662  and  _665
REMARK  267  A    between atoms: _665  and  _666
REMARK  268  A    between atoms: _668  and  _670
REMARK  269  A    between atoms: _670  and  _671
REMARK  270  A    between atoms: _670  and  _673
REMARK  271  A    between atoms: _677  and  _678
REMARK  272  A    between atoms: _683  and  _685
REMARK  273  A    between atoms: _685  and  _686
REMARK  274  A    between atoms: _685  and  _688
REMARK  275  A    between atoms: _688  and  _689
REMARK  276  A    between atoms: _694  and  _695
REMARK  277  A    between atoms: _697  and  _699
REMARK  278  A    between atoms: _699  and  _700
REMARK  279  A    between atoms: _699  and  _702
REMARK  280  A    between atoms: _702  and  _703
REMARK  281  A    between atoms: _703  and  _704
REMARK  282  A    between atoms: _704  and  _705
REMARK  283  A    between atoms: _714  and  _716
REMARK  284  A    between atoms: _716  and  _717
REMARK  285  A    between atoms: _716  and  _719
REMARK  286  A    between atoms: _719  and  _720
REMARK  287  A    between atoms: _725  and  _726
REMARK  288  A    between atoms: _728  and  _730
REMARK  289  A    between atoms: _730  and  _731
REMARK  290  A    between atoms: _730  and  _733
REMARK  291  A    between atoms: _733  and  _734
REMARK  292  A    between atoms: _740  and  _742
REMARK  293  A    between atoms: _742  and  _743
REMARK  294  A    between atoms: _742  and  _745
REMARK  295  A    between atoms: _745  and  _746
REMARK  296  A    between atoms: _748  and  _750
REMARK  297  A    between atoms: _750  and  _751
REMARK  298  A    between atoms: _750  and  _753
REMARK  299  A    between atoms: _753  and  _754
REMARK  300  A    between atoms: _760  and  _762
REMARK  301  A    between atoms: _762  and  _763
REMARK  302  A    between atoms: _762  and  _765
REMARK  303  A    between atoms: _765  and  _766
REMARK  304  A    between atoms: _766  and  _767
REMARK                            x       y       z     vdW  Elec       q    Type
REMARK                         _______ _______ _______ _____ _____    ______ ____
ROOT
ATOM      1  CA  GLU A   1       3.871  -8.913 -13.743  0.00  0.00    +0.134 C 
ENDROOT
BRANCH   1   2
ATOM      2  N   GLU A   1       2.472  -8.533 -13.505  0.00  0.00    -0.239 NA
ATOM      3  H   GLU A   1       2.254  -7.785 -12.817  0.00  0.00    +0.142 HD
ENDBRANCH   1   2
BRANCH   1   4
ATOM      4  C   GLU A   1       4.157 -10.360 -13.317  0.00  0.00    +0.224 C 
ATOM      5  O   GLU A   1       4.815 -11.100 -14.045  0.00  0.00    -0.287 OA
ENDBRANCH   1   4
BRANCH   1   6
ATOM      6  CB  GLU A   1       4.843  -7.920 -13.082  0.00  0.00    +0.037 C 
BRANCH   6   7
ATOM      7  CG  GLU A   1       6.304  -8.407 -12.926  0.00  0.00    +0.116 C 
BRANCH   7   8
ATOM      8  CD  GLU A   1       7.093  -8.476 -14.233  0.00  0.00    +0.365 C 
ATOM      9  OE2 GLU A   1       7.991  -7.619 -14.425  0.00  0.00    -0.246 OA
ATOM     10  OE1 GLU A   1       6.841  -9.400 -15.058  0.00  0.00    -0.246 OA
ENDBRANCH   7   8
ENDBRANCH   6   7
ENDBRANCH   1   6
TORSDOF 5
REMARK  Name = ../refined-set-2016/2xy9/2xy9_pocket.pdb
REMARK  304 active torsions:
REMARK  status: ('A' for Active; 'I' for Inactive)
REMARK    1  A    between atoms: _1  and  _3
REMARK    2  A    between atoms: _3  and  _4
REMARK    3  A    between atoms: _3  and  _6
REMARK    4  A    between atoms: _6  and  _7
REMARK    5  A    between atoms: _12  and  _14
REMARK    6  A    between atoms: _14  and  _15
REMARK    7  A    between atoms: _14  and  _17
REMARK    8  A    between atoms: _17  and  _18
REMARK    9  A    between atoms: _23  and  _25
REMARK   10  A    between atoms: _25  and  _26
REMARK   11  A    between atoms: _25  and  _28
REMARK   12  A    between atoms: _28  and  _29
REMARK   13  A    between atoms: _29  and  _30
REMARK   14  A    between atoms: _33  and  _35
REMARK   15  A    between atoms: _35  and  _36
REMARK   16  A    between atoms: _35  and  _38
REMARK   17  A    between atoms: _38  and  _39
REMARK   18  A    between atoms: _44  and  _45
REMARK   19  A    between atoms: _47  and  _49
REMARK   20  A    between atoms: _49  and  _50
REMARK   21  A    between atoms: _49  and  _52
REMARK   22  A    between atoms: _52  and  _53
REMARK   23  A    between atoms: _56  and  _58
REMARK   24  A    between atoms: _58  and  _59
REMARK   25  A    between atoms: _61  and  _63
REMARK   26  A    between atoms: _63  and  _64
REMARK   27  A    between atoms: _63  and  _66
REMARK   28  A    between atoms: _66  and  _67
REMARK   29  A    between atoms: _72  and  _74
REMARK   30  A    between atoms: _74  and  _75
REMARK   31  A    between atoms: _74  and  _77
REMARK   32  A    between atoms: _77  and  _78
REMARK   33  A    between atoms: _88  and  _90
REMARK   34  A    between atoms: _90  and  _91
REMARK   35  A    between atoms: _90  and  _93
REMARK   36  A    between atoms: _93  and  _94
REMARK   37  A    between atoms: _94  and  _95
REMARK   38  A    between atoms: _100  and  _102
REMARK   39  A    between atoms: _102  and  _103
REMARK   40  A    between atoms: _102  and  _105
REMARK   41  A    between atoms: _105  and  _106
REMARK   42  A    between atoms: _109  and  _111
REMARK   43  A    between atoms: _111  and  _112
REMARK   44  A    between atoms: _111  and  _114
REMARK   45  A    between atoms: _114  and  _115
REMARK   46  A    between atoms: _125  and  _127
REMARK   47  A    between atoms: _127  and  _128
REMARK   48  A    between atoms: _127  and  _130
REMARK   49  A    between atoms: _130  and  _131
REMARK   50  A    between atoms: _133  and  _135
REMARK   51  A    between atoms: _135  and  _136
REMARK   52  A    between atoms: _135  and  _138
REMARK   53  A    between atoms: _138  and  _139
REMARK   54  A    between atoms: _144  and  _146
REMARK   55  A    between atoms: _146  and  _147
REMARK   56  A    between atoms: _146  and  _149
REMARK   57  A    between atoms: _152  and  _154
REMARK   58  A    between atoms: _154  and  _155
REMARK   59  A    between atoms: _154  and  _157
REMARK   60  A    between atoms: _159  and  _161
REMARK   61  A    between atoms: _161  and  _162
REMARK   62  A    between atoms: _161  and  _164
REMARK   63  A    between atoms: _164  and  _165
REMARK   64  A    between atoms: _170  and  _172
REMARK   65  A    between atoms: _172  and  _173
REMARK   66  A    between atoms: _176  and  _178
REMARK   67  A    between atoms: _178  and  _179
REMARK   68  A    between atoms: _178  and  _181
REMARK   69  A    between atoms: _181  and  _182
REMARK   70  A    between atoms: _184  and  _186
REMARK   71  A    between atoms: _186  and  _187
REMARK   72  A    between atoms: _190  and  _192
REMARK   73  A    between atoms: _192  and  _193
REMARK   74  A    between atoms: _192  and  _195
REMARK   75  A    between atoms: _195  and  _196
REMARK   76  A    between atoms: _206  and  _208
REMARK   77  A    between atoms: _208  and  _209
REMARK   78  A    between atoms: _208  and  _211
REMARK   79  A    between atoms: _211  and  _212
REMARK   80  A    between atoms: _215  and  _217
REMARK   81  A    between atoms: _217  and  _218
REMARK   82  A    between atoms: _217  and  _220
REMARK   83  A    between atoms: _220  and  _221
REMARK   84  A    between atoms: _226  and  _227
REMARK   85  A    between atoms: _229  and  _231
REMARK   86  A    between atoms: _231  and  _232
REMARK   87  A    between atoms: _231  and  _234
REMARK   88  A    between atoms: _234  and  _235
REMARK   89  A    between atoms: _235  and  _236
REMARK   90  A    between atoms: _236  and  _237
REMARK   91  A    between atoms: _246  and  _248
REMARK   92  A    between atoms: _248  and  _249
REMARK   93  A    between atoms: _248  and  _251
REMARK   94  A    between atoms: _251  and  _252
REMARK   95  A    between atoms: _255  and  _257
REMARK   96  A    between atoms: _257  and  _258
REMARK   97  A    between atoms: _257  and  _260
REMARK   98  A    between atoms: _260  and  _261
REMARK   99  A    between atoms: _261  and  _262
REMARK  100  A    between atoms: _262  and  _263
REMARK  101  A    between atoms: _263  and  _264
REMARK  102  A    between atoms: _268  and  _270
REMARK  103  A    between atoms: _270  and  _271
REMARK  104  A    between atoms: _270  and  _273
REMARK  105  A    between atoms: _273  and  _274
REMARK  106  A    between atoms: _274  and  _275
REMARK  107  A    between atoms: _280  and  _282
REMARK  108  A    between atoms: _282  and  _283
REMARK  109  A    between atoms: _282  and  _285
REMARK  110  A    between atoms: _285  and  _286
REMARK  111  A    between atoms: _289  and  _291
REMARK  112  A    between atoms: _291  and  _292
REMARK  113  A    between atoms: _291  and  _294
REMARK  114  A    between atoms: _294  and  _295
REMARK  115  A    between atoms: _295  and  _296
REMARK  116  A    between atoms: _299  and  _301
REMARK  117  A    between atoms: _301  and  _302
REMARK  118  A    between atoms: _301  and  _304
REMARK  119  A    between atoms: _304  and  _305
REMARK  120  A    between atoms: _308  and  _310
REMARK  121  A    between atoms: _310  and  _311
REMARK  122  A    between atoms: _310  and  _313
REMARK  123  A    between atoms: _313  and  _314
REMARK  124  A    between atoms: _317  and  _319
REMARK  125  A    between atoms: _319  and  _320
REMARK  126  A    between atoms: _319  and  _322
REMARK  127  A    between atoms: _325  and  _327
REMARK  128  A    between atoms: _327  and  _328
REMARK  129  A    between atoms: _327  and  _330
REMARK  130  A    between atoms: _333  and  _335
REMARK  131  A    between atoms: _335  and  _336
REMARK  132  A    between atoms: _339  and  _341
REMARK  133  A    between atoms: _341  and  _342
REMARK  134  A    between atoms: _341  and  _344
REMARK  135  A    between atoms: _344  and  _345
REMARK  136  A    between atoms: _350  and  _352
REMARK  137  A    between atoms: _352  and  _353
REMARK  138  A    between atoms: _352  and  _355
REMARK  139  A    between atoms: _355  and  _356
REMARK  140  A    between atoms: _360  and  ZN_772
REMARK  141  A    between atoms: _361  and  _363
REMARK  142  A    between atoms: _363  and  _364
REMARK  143  A    between atoms: _363  and  _366
REMARK  144  A    between atoms: _366  and  _367
REMARK  145  A    between atoms: _367  and  _368
REMARK  146  A    between atoms: _371  and  _373
REMARK  147  A    between atoms: _373  and  _374
REMARK  148  A    between atoms: _373  and  _376
REMARK  149  A    between atoms: _376  and  _377
REMARK  150  A    between atoms: _377  and  _378
REMARK  151  A    between atoms: _380  and  _382
REMARK  152  A    between atoms: _382  and  _383
REMARK  153  A    between atoms: _382  and  _385
REMARK  154  A    between atoms: _385  and  _386
REMARK  155  A    between atoms: _390  and  ZN_772
REMARK  156  A    between atoms: _391  and  _393
REMARK  157  A    between atoms: _393  and  _394
REMARK  158  A    between atoms: _393  and  _396
REMARK  159  A    between atoms: _396  and  _397
REMARK  160  A    between atoms: _400  and  _402
REMARK  161  A    between atoms: _402  and  _403
REMARK  162  A    between atoms: _402  and  _405
REMARK  163  A    between atoms: _405  and  _406
REMARK  164  A    between atoms: _411  and  _412
REMARK  165  A    between atoms: _414  and  _416
REMARK  166  A    between atoms: _416  and  _417
REMARK  167  A    between atoms: _416  and  _419
REMARK  168  A    between atoms: _419  and  _420
REMARK  169  A    between atoms: _426  and  _428
REMARK  170  A    between atoms: _428  and  _429
REMARK  171  A    between atoms: _428  and  _431
REMARK  172  A    between atoms: _431  and  _432
REMARK  173  A    between atoms: _437  and  _438
REMARK  174  A    between atoms: _440  and  _442
REMARK  175  A    between atoms: _442  and  _443
REMARK  176  A    between atoms: _442  and  _445
REMARK  177  A    between atoms: _445  and  _446
REMARK  178  A    between atoms: _446  and  _447
REMARK  179  A    between atoms: _447  and  _448
REMARK  180  A    between atoms: _457  and  _459
REMARK  181  A    between atoms: _459  and  _460
REMARK  182  A    between atoms: _459  and  _462
REMARK  183  A    between atoms: _462  and  _463
REMARK  184  A    between atoms: _463  and  _464
REMARK  185  A    between atoms: _467  and  _469
REMARK  186  A    between atoms: _469  and  _470
REMARK  187  A    between atoms: _472  and  _474
REMARK  188  A    between atoms: _474  and  _475
REMARK  189  A    between atoms: _474  and  _477
REMARK  190  A    between atoms: _477  and  _478
REMARK  191  A    between atoms: _484  and  _485
REMARK  192  A    between atoms: _490  and  _492
REMARK  193  A    between atoms: _492  and  _493
REMARK  194  A    between atoms: _495  and  _497
REMARK  195  A    between atoms: _497  and  _498
REMARK  196  A    between atoms: _497  and  _500
REMARK  197  A    between atoms: _500  and  _501
REMARK  198  A    between atoms: _507  and  _509
REMARK  199  A    between atoms: _509  and  _510
REMARK  200  A    between atoms: _509  and  _512
REMARK  201  A    between atoms: _512  and  _513
REMARK  202  A    between atoms: _518  and  _520
REMARK  203  A    between atoms: _520  and  _521
REMARK  204  A    between atoms: _520  and  _523
REMARK  205  A    between atoms: _523  and  _524
REMARK  206  A    between atoms: _524  and  _525
REMARK  207  A    between atoms: _525  and  _526
REMARK  208  A    between atoms: _526  and  ZN_772
REMARK  209  A    between atoms: _528  and  _530
REMARK  210  A    between atoms: _530  and  _531
REMARK  211  A    between atoms: _534  and  _536
REMARK  212  A    between atoms: _536  and  _537
REMARK  213  A    between atoms: _539  and  _541
REMARK  214  A    between atoms: _541  and  _542
REMARK  215  A    between atoms: _541  and  _544
REMARK  216  A    between atoms: _544  and  _545
REMARK  217  A    between atoms: _548  and  _550
REMARK  218  A    between atoms: _550  and  _551
REMARK  219  A    between atoms: _554  and  _556
REMARK  220  A    between atoms: _556  and  _557
REMARK  221  A    between atoms: _556  and  _559
REMARK  222  A    between atoms: _559  and  _560
REMARK  223  A    between atoms: _563  and  _565
REMARK  224  A    between atoms: _565  and  _566
REMARK  225  A    between atoms: _565  and  _568
REMARK  226  A    between atoms: _568  and  _569
REMARK  227  A    between atoms: _569  and  _570
REMARK  228  A    between atoms: _570  and  _571
REMARK  229  A    between atoms: _571  and  _572
REMARK  230  A    between atoms: _576  and  _578
REMARK  231  A    between atoms: _578  and  _579
REMARK  232  A    between atoms: _578  and  _581
REMARK  233  A    between atoms: _581  and  _582
REMARK  234  A    between atoms: _588  and  _590
REMARK  235  A    between atoms: _590  and  _591
REMARK  236  A    between atoms: _590  and  _593
REMARK  237  A    between atoms: _593  and  _594
REMARK  238  A    between atoms: _600  and  _602
REMARK  239  A    between atoms: _602  and  _603
REMARK  240  A    between atoms: _602  and  _605
REMARK  241  A    between atoms: _605  and  _606
REMARK  242  A    between atoms: _608  and  _610
REMARK  243  A    between atoms: _610  and  _611
REMARK  244  A    between atoms: _610  and  _613
REMARK  245  A    between atoms: _616  and  _618
REMARK  246  A    between atoms: _618  and  _619
REMARK  247  A    between atoms: _618  and  _621
REMARK  248  A    between atoms: _621  and  _622
REMARK  249  A    between atoms: _622  and  _623
REMARK  250  A    between atoms: _623  and  _624
REMARK  251  A    between atoms: _624  and  _625
REMARK  252  A    between atoms: _629  and  _631
REMARK  253  A    between atoms: _631  and  _632
REMARK  254  A    between atoms: _631  and  _634
REMARK  255  A    between atoms: _634  and  _635
REMARK  256  A    between atoms: _641  and  _643
REMARK  257  A    between atoms: _643  and  _644
REMARK  258  A    between atoms: _643  and  _646
REMARK  259  A    between atoms: _646  and  _647
REMARK  260  A    between atoms: _652  and  _654
REMARK  261  A    between atoms: _654  and  _655
REMARK  262  A    between atoms: _654  and  _657
REMARK  263  A    between atoms: _657  and  _658
REMARK  264  A    between atoms: _660  and  _662
REMARK  265  A    between atoms: _662  and  _663
REMARK  266  A    between atoms: _662  and  _665
REMARK  267  A    between atoms: _665  and  _666
REMARK  268  A    between atoms: _668  and  _670
REMARK  269  A    between atoms: _670  and  _671
REMARK  270  A    between atoms: _670  and  _673
REMARK  271  A    between atoms: _677  and  _678
REMARK  272  A    between atoms: _683  and  _685
REMARK  273  A    between atoms: _685  and  _686
REMARK  274  A    between atoms: _685  and  _688
REMARK  275  A    between atoms: _688  and  _689
REMARK  276  A    between atoms: _694  and  _695
REMARK  277  A    between atoms: _697  and  _699
REMARK  278  A    between atoms: _699  and  _700
REMARK  279  A    between atoms: _699  and  _702
REMARK  280  A    between atoms: _702  and  _703
REMARK  281  A    between atoms: _703  and  _704
REMARK  282  A    between atoms: _704  and  _705
REMARK  283  A    between atoms: _714  and  _716
REMARK  284  A    between atoms: _716  and  _717
REMARK  285  A    between atoms: _716  and  _719
REMARK  286  A    between atoms: _719  and  _720
REMARK  287  A    between atoms: _725  and  _726
REMARK  288  A    between atoms: _728  and  _730
REMARK  289  A    between atoms: _730  and  _731
REMARK  290  A    between atoms: _730  and  _733
REMARK  291  A    between atoms: _733  and  _734
REMARK  292  A    between atoms: _740  and  _742
REMARK  293  A    between atoms: _742  and  _743
REMARK  294  A    between atoms: _742  and  _745
REMARK  295  A    between atoms: _745  and  _746
REMARK  296  A    between atoms: _748  and  _750
REMARK  297  A    between atoms: _750  and  _751
REMARK  298  A    between atoms: _750  and  _753
REMARK  299  A    between atoms: _753  and  _754
REMARK  300  A    between atoms: _760  and  _762
REMARK  301  A    between atoms: _762  and  _763
REMARK  302  A    between atoms: _762  and  _765
REMARK  303  A    between atoms: _765  and  _766
REMARK  304  A    between atoms: _766  and  _767
REMARK                            x       y       z     vdW  Elec       q    Type
REMARK                         _______ _______ _______ _____ _____    ______ ____
ROOT
ATOM      1  CG  TYR A   1       4.587 -11.587 -18.888  0.00  0.00    -0.020 A 
ATOM      2  CD2 TYR A   1       5.981 -11.651 -18.792  0.00  0.00    -0.001 A 
ATOM      3  CE2 TYR A   1       6.787 -11.669 -19.937  0.00  0.00    +0.036 A 
ATOM      4  CZ  TYR A   1       6.192 -11.609 -21.188  0.00  0.00    +0.134 A 
ATOM      5  CE1 TYR A   1       4.815 -11.538 -21.307  0.00  0.00    +0.036 A 
ATOM      6  CD1 TYR A   1       4.020 -11.526 -20.161  0.00  0.00    -0.001 A 
ENDROOT
BRANCH   4   7
ATOM      7  OH  TYR A   1       6.974 -11.613 -22.324  0.00  0.00    -0.506 OA
ATOM      8  HH  TYR A   1       7.928 -11.667 -22.066  0.00  0.00    +0.292 HD
ENDBRANCH   4   7
BRANCH   1   9
ATOM      9  CB  TYR A   1       3.714 -11.570 -17.644  0.00  0.00    +0.051 C 
BRANCH   9  10
ATOM     10  CA  TYR A   1       3.344 -12.961 -17.104  0.00  0.00    +0.137 C 
BRANCH  10  11
ATOM     11  N   TYR A   1       2.527 -12.857 -15.886  0.00  0.00    -0.239 NA
ATOM     12  H   TYR A   1       2.357 -11.921 -15.465  0.00  0.00    +0.142 HD
ENDBRANCH  10  11
BRANCH  10  13
ATOM     13  C   TYR A   1       4.604 -13.801 -16.874  0.00  0.00    +0.224 C 
ATOM     14  O   TYR A   1       4.928 -14.678 -17.681  0.00  0.00    -0.287 OA
ENDBRANCH  10  13
ENDBRANCH   9  10
ENDBRANCH   1   9
TORSDOF 5
REMARK  Name = ../refined-set-2016/2xy9/2xy9_pocket.pdb
REMARK  304 active torsions:
REMARK  status: ('A' for Active; 'I' for Inactive)
REMARK    1  A    between atoms: _1  and  _3
REMARK    2  A    between atoms: _3  and  _4
REMARK    3  A    between atoms: _3  and  _6
REMARK    4  A    between atoms: _6  and  _7
REMARK    5  A    between atoms: _12  and  _14
REMARK    6  A    between atoms: _14  and  _15
REMARK    7  A    between atoms: _14  and  _17
REMARK    8  A    between atoms: _17  and  _18
REMARK    9  A    between atoms: _23  and  _25
REMARK   10  A    between atoms: _25  and  _26
REMARK   11  A    between atoms: _25  and  _28
REMARK   12  A    between atoms: _28  and  _29
REMARK   13  A    between atoms: _29  and  _30
REMARK   14  A    between atoms: _33  and  _35
REMARK   15  A    between atoms: _35  and  _36
REMARK   16  A    between atoms: _35  and  _38
REMARK   17  A    between atoms: _38  and  _39
REMARK   18  A    between atoms: _44  and  _45
REMARK   19  A    between atoms: _47  and  _49
REMARK   20  A    between atoms: _49  and  _50
REMARK   21  A    between atoms: _49  and  _52
REMARK   22  A    between atoms: _52  and  _53
REMARK   23  A    between atoms: _56  and  _58
REMARK   24  A    between atoms: _58  and  _59
REMARK   25  A    between atoms: _61  and  _63
REMARK   26  A    between atoms: _63  and  _64
REMARK   27  A    between atoms: _63  and  _66
REMARK   28  A    between atoms: _66  and  _67
REMARK   29  A    between atoms: _72  and  _74
REMARK   30  A    between atoms: _74  and  _75
REMARK   31  A    between atoms: _74  and  _77
REMARK   32  A    between atoms: _77  and  _78
REMARK   33  A    between atoms: _88  and  _90
REMARK   34  A    between atoms: _90  and  _91
REMARK   35  A    between atoms: _90  and  _93
REMARK   36  A    between atoms: _93  and  _94
REMARK   37  A    between atoms: _94  and  _95
REMARK   38  A    between atoms: _100  and  _102
REMARK   39  A    between atoms: _102  and  _103
REMARK   40  A    between atoms: _102  and  _105
REMARK   41  A    between atoms: _105  and  _106
REMARK   42  A    between atoms: _109  and  _111
REMARK   43  A    between atoms: _111  and  _112
REMARK   44  A    between atoms: _111  and  _114
REMARK   45  A    between atoms: _114  and  _115
REMARK   46  A    between atoms: _125  and  _127
REMARK   47  A    between atoms: _127  and  _128
REMARK   48  A    between atoms: _127  and  _130
REMARK   49  A    between atoms: _130  and  _131
REMARK   50  A    between atoms: _133  and  _135
REMARK   51  A    between atoms: _135  and  _136
REMARK   52  A    between atoms: _135  and  _138
REMARK   53  A    between atoms: _138  and  _139
REMARK   54  A    between atoms: _144  and  _146
REMARK   55  A    between atoms: _146  and  _147
REMARK   56  A    between atoms: _146  and  _149
REMARK   57  A    between atoms: _152  and  _154
REMARK   58  A    between atoms: _154  and  _155
REMARK   59  A    between atoms: _154  and  _157
REMARK   60  A    between atoms: _159  and  _161
REMARK   61  A    between atoms: _161  and  _162
REMARK   62  A    between atoms: _161  and  _164
REMARK   63  A    between atoms: _164  and  _165
REMARK   64  A    between atoms: _170  and  _172
REMARK   65  A    between atoms: _172  and  _173
REMARK   66  A    between atoms: _176  and  _178
REMARK   67  A    between atoms: _178  and  _179
REMARK   68  A    between atoms: _178  and  _181
REMARK   69  A    between atoms: _181  and  _182
REMARK   70  A    between atoms: _184  and  _186
REMARK   71  A    between atoms: _186  and  _187
REMARK   72  A    between atoms: _190  and  _192
REMARK   73  A    between atoms: _192  and  _193
REMARK   74  A    between atoms: _192  and  _195
REMARK   75  A    between atoms: _195  and  _196
REMARK   76  A    between atoms: _206  and  _208
REMARK   77  A    between atoms: _208  and  _209
REMARK   78  A    between atoms: _208  and  _211
REMARK   79  A    between atoms: _211  and  _212
REMARK   80  A    between atoms: _215  and  _217
REMARK   81  A    between atoms: _217  and  _218
REMARK   82  A    between atoms: _217  and  _220
REMARK   83  A    between atoms: _220  and  _221
REMARK   84  A    between atoms: _226  and  _227
REMARK   85  A    between atoms: _229  and  _231
REMARK   86  A    between atoms: _231  and  _232
REMARK   87  A    between atoms: _231  and  _234
REMARK   88  A    between atoms: _234  and  _235
REMARK   89  A    between atoms: _235  and  _236
REMARK   90  A    between atoms: _236  and  _237
REMARK   91  A    between atoms: _246  and  _248
REMARK   92  A    between atoms: _248  and  _249
REMARK   93  A    between atoms: _248  and  _251
REMARK   94  A    between atoms: _251  and  _252
REMARK   95  A    between atoms: _255  and  _257
REMARK   96  A    between atoms: _257  and  _258
REMARK   97  A    between atoms: _257  and  _260
REMARK   98  A    between atoms: _260  and  _261
REMARK   99  A    between atoms: _261  and  _262
REMARK  100  A    between atoms: _262  and  _263
REMARK  101  A    between atoms: _263  and  _264
REMARK  102  A    between atoms: _268  and  _270
REMARK  103  A    between atoms: _270  and  _271
REMARK  104  A    between atoms: _270  and  _273
REMARK  105  A    between atoms: _273  and  _274
REMARK  106  A    between atoms: _274  and  _275
REMARK  107  A    between atoms: _280  and  _282
REMARK  108  A    between atoms: _282  and  _283
REMARK  109  A    between atoms: _282  and  _285
REMARK  110  A    between atoms: _285  and  _286
REMARK  111  A    between atoms: _289  and  _291
REMARK  112  A    between atoms: _291  and  _292
REMARK  113  A    between atoms: _291  and  _294
REMARK  114  A    between atoms: _294  and  _295
REMARK  115  A    between atoms: _295  and  _296
REMARK  116  A    between atoms: _299  and  _301
REMARK  117  A    between atoms: _301  and  _302
REMARK  118  A    between atoms: _301  and  _304
REMARK  119  A    between atoms: _304  and  _305
REMARK  120  A    between atoms: _308  and  _310
REMARK  121  A    between atoms: _310  and  _311
REMARK  122  A    between atoms: _310  and  _313
REMARK  123  A    between atoms: _313  and  _314
REMARK  124  A    between atoms: _317  and  _319
REMARK  125  A    between atoms: _319  and  _320
REMARK  126  A    between atoms: _319  and  _322
REMARK  127  A    between atoms: _325  and  _327
REMARK  128  A    between atoms: _327  and  _328
REMARK  129  A    between atoms: _327  and  _330
REMARK  130  A    between atoms: _333  and  _335
REMARK  131  A    between atoms: _335  and  _336
REMARK  132  A    between atoms: _339  and  _341
REMARK  133  A    between atoms: _341  and  _342
REMARK  134  A    between atoms: _341  and  _344
REMARK  135  A    between atoms: _344  and  _345
REMARK  136  A    between atoms: _350  and  _352
REMARK  137  A    between atoms: _352  and  _353
REMARK  138  A    between atoms: _352  and  _355
REMARK  139  A    between atoms: _355  and  _356
REMARK  140  A    between atoms: _360  and  ZN_772
REMARK  141  A    between atoms: _361  and  _363
REMARK  142  A    between atoms: _363  and  _364
REMARK  143  A    between atoms: _363  and  _366
REMARK  144  A    between atoms: _366  and  _367
REMARK  145  A    between atoms: _367  and  _368
REMARK  146  A    between atoms: _371  and  _373
REMARK  147  A    between atoms: _373  and  _374
REMARK  148  A    between atoms: _373  and  _376
REMARK  149  A    between atoms: _376  and  _377
REMARK  150  A    between atoms: _377  and  _378
REMARK  151  A    between atoms: _380  and  _382
REMARK  152  A    between atoms: _382  and  _383
REMARK  153  A    between atoms: _382  and  _385
REMARK  154  A    between atoms: _385  and  _386
REMARK  155  A    between atoms: _390  and  ZN_772
REMARK  156  A    between atoms: _391  and  _393
REMARK  157  A    between atoms: _393  and  _394
REMARK  158  A    between atoms: _393  and  _396
REMARK  159  A    between atoms: _396  and  _397
REMARK  160  A    between atoms: _400  and  _402
REMARK  161  A    between atoms: _402  and  _403
REMARK  162  A    between atoms: _402  and  _405
REMARK  163  A    between atoms: _405  and  _406
REMARK  164  A    between atoms: _411  and  _412
REMARK  165  A    between atoms: _414  and  _416
REMARK  166  A    between atoms: _416  and  _417
REMARK  167  A    between atoms: _416  and  _419
REMARK  168  A    between atoms: _419  and  _420
REMARK  169  A    between atoms: _426  and  _428
REMARK  170  A    between atoms: _428  and  _429
REMARK  171  A    between atoms: _428  and  _431
REMARK  172  A    between atoms: _431  and  _432
REMARK  173  A    between atoms: _437  and  _438
REMARK  174  A    between atoms: _440  and  _442
REMARK  175  A    between atoms: _442  and  _443
REMARK  176  A    between atoms: _442  and  _445
REMARK  177  A    between atoms: _445  and  _446
REMARK  178  A    between atoms: _446  and  _447
REMARK  179  A    between atoms: _447  and  _448
REMARK  180  A    between atoms: _457  and  _459
REMARK  181  A    between atoms: _459  and  _460
REMARK  182  A    between atoms: _459  and  _462
REMARK  183  A    between atoms: _462  and  _463
REMARK  184  A    between atoms: _463  and  _464
REMARK  185  A    between atoms: _467  and  _469
REMARK  186  A    between atoms: _469  and  _470
REMARK  187  A    between atoms: _472  and  _474
REMARK  188  A    between atoms: _474  and  _475
REMARK  189  A    between atoms: _474  and  _477
REMARK  190  A    between atoms: _477  and  _478
REMARK  191  A    between atoms: _484  and  _485
REMARK  192  A    between atoms: _490  and  _492
REMARK  193  A    between atoms: _492  and  _493
REMARK  194  A    between atoms: _495  and  _497
REMARK  195  A    between atoms: _497  and  _498
REMARK  196  A    between atoms: _497  and  _500
REMARK  197  A    between atoms: _500  and  _501
REMARK  198  A    between atoms: _507  and  _509
REMARK  199  A    between atoms: _509  and  _510
REMARK  200  A    between atoms: _509  and  _512
REMARK  201  A    between atoms: _512  and  _513
REMARK  202  A    between atoms: _518  and  _520
REMARK  203  A    between atoms: _520  and  _521
REMARK  204  A    between atoms: _520  and  _523
REMARK  205  A    between atoms: _523  and  _524
REMARK  206  A    between atoms: _524  and  _525
REMARK  207  A    between atoms: _525  and  _526
REMARK  208  A    between atoms: _526  and  ZN_772
REMARK  209  A    between atoms: _528  and  _530
REMARK  210  A    between atoms: _530  and  _531
REMARK  211  A    between atoms: _534  and  _536
REMARK  212  A    between atoms: _536  and  _537
REMARK  213  A    between atoms: _539  and  _541
REMARK  214  A    between atoms: _541  and  _542
REMARK  215  A    between atoms: _541  and  _544
REMARK  216  A    between atoms: _544  and  _545
REMARK  217  A    between atoms: _548  and  _550
REMARK  218  A    between atoms: _550  and  _551
REMARK  219  A    between atoms: _554  and  _556
REMARK  220  A    between atoms: _556  and  _557
REMARK  221  A    between atoms: _556  and  _559
REMARK  222  A    between atoms: _559  and  _560
REMARK  223  A    between atoms: _563  and  _565
REMARK  224  A    between atoms: _565  and  _566
REMARK  225  A    between atoms: _565  and  _568
REMARK  226  A    between atoms: _568  and  _569
REMARK  227  A    between atoms: _569  and  _570
REMARK  228  A    between atoms: _570  and  _571
REMARK  229  A    between atoms: _571  and  _572
REMARK  230  A    between atoms: _576  and  _578
REMARK  231  A    between atoms: _578  and  _579
REMARK  232  A    between atoms: _578  and  _581
REMARK  233  A    between atoms: _581  and  _582
REMARK  234  A    between atoms: _588  and  _590
REMARK  235  A    between atoms: _590  and  _591
REMARK  236  A    between atoms: _590  and  _593
REMARK  237  A    between atoms: _593  and  _594
REMARK  238  A    between atoms: _600  and  _602
REMARK  239  A    between atoms: _602  and  _603
REMARK  240  A    between atoms: _602  and  _605
REMARK  241  A    between atoms: _605  and  _606
REMARK  242  A    between atoms: _608  and  _610
REMARK  243  A    between atoms: _610  and  _611
REMARK  244  A    between atoms: _610  and  _613
REMARK  245  A    between atoms: _616  and  _618
REMARK  246  A    between atoms: _618  and  _619
REMARK  247  A    between atoms: _618  and  _621
REMARK  248  A    between atoms: _621  and  _622
REMARK  249  A    between atoms: _622  and  _623
REMARK  250  A    between atoms: _623  and  _624
REMARK  251  A    between atoms: _624  and  _625
REMARK  252  A    between atoms: _629  and  _631
REMARK  253  A    between atoms: _631  and  _632
REMARK  254  A    between atoms: _631  and  _634
REMARK  255  A    between atoms: _634  and  _635
REMARK  256  A    between atoms: _641  and  _643
REMARK  257  A    between atoms: _643  and  _644
REMARK  258  A    between atoms: _643  and  _646
REMARK  259  A    between atoms: _646  and  _647
REMARK  260  A    between atoms: _652  and  _654
REMARK  261  A    between atoms: _654  and  _655
REMARK  262  A    between atoms: _654  and  _657
REMARK  263  A    between atoms: _657  and  _658
REMARK  264  A    between atoms: _660  and  _662
REMARK  265  A    between atoms: _662  and  _663
REMARK  266  A    between atoms: _662  and  _665
REMARK  267  A    between atoms: _665  and  _666
REMARK  268  A    between atoms: _668  and  _670
REMARK  269  A    between atoms: _670  and  _671
REMARK  270  A    between atoms: _670  and  _673
REMARK  271  A    between atoms: _677  and  _678
REMARK  272  A    between atoms: _683  and  _685
REMARK  273  A    between atoms: _685  and  _686
REMARK  274  A    between atoms: _685  and  _688
REMARK  275  A    between atoms: _688  and  _689
REMARK  276  A    between atoms: _694  and  _695
REMARK  277  A    between atoms: _697  and  _699
REMARK  278  A    between atoms: _699  and  _700
REMARK  279  A    between atoms: _699  and  _702
REMARK  280  A    between atoms: _702  and  _703
REMARK  281  A    between atoms: _703  and  _704
REMARK  282  A    between atoms: _704  and  _705
REMARK  283  A    between atoms: _714  and  _716
REMARK  284  A    between atoms: _716  and  _717
REMARK  285  A    between atoms: _716  and  _719
REMARK  286  A    between atoms: _719  and  _720
REMARK  287  A    between atoms: _725  and  _726
REMARK  288  A    between atoms: _728  and  _730
REMARK  289  A    between atoms: _730  and  _731
REMARK  290  A    between atoms: _730  and  _733
REMARK  291  A    between atoms: _733  and  _734
REMARK  292  A    between atoms: _740  and  _742
REMARK  293  A    between atoms: _742  and  _743
REMARK  294  A    between atoms: _742  and  _745
REMARK  295  A    between atoms: _745  and  _746
REMARK  296  A    between atoms: _748  and  _750
REMARK  297  A    between atoms: _750  and  _751
REMARK  298  A    between atoms: _750  and  _753
REMARK  299  A    between atoms: _753  and  _754
REMARK  300  A    between atoms: _760  and  _762
REMARK  301  A    between atoms: _762  and  _763
REMARK  302  A    between atoms: _762  and  _765
REMARK  303  A    between atoms: _765  and  _766
REMARK  304  A    between atoms: _766  and  _767
REMARK                            x       y       z     vdW  Elec       q    Type
REMARK                         _______ _______ _______ _____ _____    ______ ____
ROOT
ATOM      1  CA  THR A   1      12.088 -18.339 -27.328  0.00  0.00    +0.160 C 
ENDROOT
BRANCH   1   2
ATOM      2  N   THR A   1      11.173 -19.189 -26.562  0.00  0.00    -0.237 NA
ATOM      3  H   THR A   1      11.224 -19.160 -25.524  0.00  0.00    +0.142 HD
ENDBRANCH   1   2
BRANCH   1   4
ATOM      4  CB  THR A   1      13.021 -17.541 -26.387  0.00  0.00    +0.134 C 
ATOM      5  CG2 THR A   1      13.940 -16.617 -27.176  0.00  0.00    +0.034 C 
BRANCH   4   6
ATOM      6  OG1 THR A   1      12.227 -16.751 -25.492  0.00  0.00    -0.383 OA
ATOM      7  HG1 THR A   1      11.645 -17.346 -24.956  0.00  0.00    +0.210 HD
ENDBRANCH   4   6
ENDBRANCH   1   4
BRANCH   1   8
ATOM      8  C   THR A   1      12.915 -19.168 -28.315  0.00  0.00    +0.227 C 
ATOM      9  O   THR A   1      13.037 -18.802 -29.484  0.00  0.00    -0.287 OA
ENDBRANCH   1   8
TORSDOF 4
REMARK  Name = ../refined-set-2016/2xy9/2xy9_pocket.pdb
REMARK  304 active torsions:
REMARK  status: ('A' for Active; 'I' for Inactive)
REMARK    1  A    between atoms: _1  and  _3
REMARK    2  A    between atoms: _3  and  _4
REMARK    3  A    between atoms: _3  and  _6
REMARK    4  A    between atoms: _6  and  _7
REMARK    5  A    between atoms: _12  and  _14
REMARK    6  A    between atoms: _14  and  _15
REMARK    7  A    between atoms: _14  and  _17
REMARK    8  A    between atoms: _17  and  _18
REMARK    9  A    between atoms: _23  and  _25
REMARK   10  A    between atoms: _25  and  _26
REMARK   11  A    between atoms: _25  and  _28
REMARK   12  A    between atoms: _28  and  _29
REMARK   13  A    between atoms: _29  and  _30
REMARK   14  A    between atoms: _33  and  _35
REMARK   15  A    between atoms: _35  and  _36
REMARK   16  A    between atoms: _35  and  _38
REMARK   17  A    between atoms: _38  and  _39
REMARK   18  A    between atoms: _44  and  _45
REMARK   19  A    between atoms: _47  and  _49
REMARK   20  A    between atoms: _49  and  _50
REMARK   21  A    between atoms: _49  and  _52
REMARK   22  A    between atoms: _52  and  _53
REMARK   23  A    between atoms: _56  and  _58
REMARK   24  A    between atoms: _58  and  _59
REMARK   25  A    between atoms: _61  and  _63
REMARK   26  A    between atoms: _63  and  _64
REMARK   27  A    between atoms: _63  and  _66
REMARK   28  A    between atoms: _66  and  _67
REMARK   29  A    between atoms: _72  and  _74
REMARK   30  A    between atoms: _74  and  _75
REMARK   31  A    between atoms: _74  and  _77
REMARK   32  A    between atoms: _77  and  _78
REMARK   33  A    between atoms: _88  and  _90
REMARK   34  A    between atoms: _90  and  _91
REMARK   35  A    between atoms: _90  and  _93
REMARK   36  A    between atoms: _93  and  _94
REMARK   37  A    between atoms: _94  and  _95
REMARK   38  A    between atoms: _100  and  _102
REMARK   39  A    between atoms: _102  and  _103
REMARK   40  A    between atoms: _102  and  _105
REMARK   41  A    between atoms: _105  and  _106
REMARK   42  A    between atoms: _109  and  _111
REMARK   43  A    between atoms: _111  and  _112
REMARK   44  A    between atoms: _111  and  _114
REMARK   45  A    between atoms: _114  and  _115
REMARK   46  A    between atoms: _125  and  _127
REMARK   47  A    between atoms: _127  and  _128
REMARK   48  A    between atoms: _127  and  _130
REMARK   49  A    between atoms: _130  and  _131
REMARK   50  A    between atoms: _133  and  _135
REMARK   51  A    between atoms: _135  and  _136
REMARK   52  A    between atoms: _135  and  _138
REMARK   53  A    between atoms: _138  and  _139
REMARK   54  A    between atoms: _144  and  _146
REMARK   55  A    between atoms: _146  and  _147
REMARK   56  A    between atoms: _146  and  _149
REMARK   57  A    between atoms: _152  and  _154
REMARK   58  A    between atoms: _154  and  _155
REMARK   59  A    between atoms: _154  and  _157
REMARK   60  A    between atoms: _159  and  _161
REMARK   61  A    between atoms: _161  and  _162
REMARK   62  A    between atoms: _161  and  _164
REMARK   63  A    between atoms: _164  and  _165
REMARK   64  A    between atoms: _170  and  _172
REMARK   65  A    between atoms: _172  and  _173
REMARK   66  A    between atoms: _176  and  _178
REMARK   67  A    between atoms: _178  and  _179
REMARK   68  A    between atoms: _178  and  _181
REMARK   69  A    between atoms: _181  and  _182
REMARK   70  A    between atoms: _184  and  _186
REMARK   71  A    between atoms: _186  and  _187
REMARK   72  A    between atoms: _190  and  _192
REMARK   73  A    between atoms: _192  and  _193
REMARK   74  A    between atoms: _192  and  _195
REMARK   75  A    between atoms: _195  and  _196
REMARK   76  A    between atoms: _206  and  _208
REMARK   77  A    between atoms: _208  and  _209
REMARK   78  A    between atoms: _208  and  _211
REMARK   79  A    between atoms: _211  and  _212
REMARK   80  A    between atoms: _215  and  _217
REMARK   81  A    between atoms: _217  and  _218
REMARK   82  A    between atoms: _217  and  _220
REMARK   83  A    between atoms: _220  and  _221
REMARK   84  A    between atoms: _226  and  _227
REMARK   85  A    between atoms: _229  and  _231
REMARK   86  A    between atoms: _231  and  _232
REMARK   87  A    between atoms: _231  and  _234
REMARK   88  A    between atoms: _234  and  _235
REMARK   89  A    between atoms: _235  and  _236
REMARK   90  A    between atoms: _236  and  _237
REMARK   91  A    between atoms: _246  and  _248
REMARK   92  A    between atoms: _248  and  _249
REMARK   93  A    between atoms: _248  and  _251
REMARK   94  A    between atoms: _251  and  _252
REMARK   95  A    between atoms: _255  and  _257
REMARK   96  A    between atoms: _257  and  _258
REMARK   97  A    between atoms: _257  and  _260
REMARK   98  A    between atoms: _260  and  _261
REMARK   99  A    between atoms: _261  and  _262
REMARK  100  A    between atoms: _262  and  _263
REMARK  101  A    between atoms: _263  and  _264
REMARK  102  A    between atoms: _268  and  _270
REMARK  103  A    between atoms: _270  and  _271
REMARK  104  A    between atoms: _270  and  _273
REMARK  105  A    between atoms: _273  and  _274
REMARK  106  A    between atoms: _274  and  _275
REMARK  107  A    between atoms: _280  and  _282
REMARK  108  A    between atoms: _282  and  _283
REMARK  109  A    between atoms: _282  and  _285
REMARK  110  A    between atoms: _285  and  _286
REMARK  111  A    between atoms: _289  and  _291
REMARK  112  A    between atoms: _291  and  _292
REMARK  113  A    between atoms: _291  and  _294
REMARK  114  A    between atoms: _294  and  _295
REMARK  115  A    between atoms: _295  and  _296
REMARK  116  A    between atoms: _299  and  _301
REMARK  117  A    between atoms: _301  and  _302
REMARK  118  A    between atoms: _301  and  _304
REMARK  119  A    between atoms: _304  and  _305
REMARK  120  A    between atoms: _308  and  _310
REMARK  121  A    between atoms: _310  and  _311
REMARK  122  A    between atoms: _310  and  _313
REMARK  123  A    between atoms: _313  and  _314
REMARK  124  A    between atoms: _317  and  _319
REMARK  125  A    between atoms: _319  and  _320
REMARK  126  A    between atoms: _319  and  _322
REMARK  127  A    between atoms: _325  and  _327
REMARK  128  A    between atoms: _327  and  _328
REMARK  129  A    between atoms: _327  and  _330
REMARK  130  A    between atoms: _333  and  _335
REMARK  131  A    between atoms: _335  and  _336
REMARK  132  A    between atoms: _339  and  _341
REMARK  133  A    between atoms: _341  and  _342
REMARK  134  A    between atoms: _341  and  _344
REMARK  135  A    between atoms: _344  and  _345
REMARK  136  A    between atoms: _350  and  _352
REMARK  137  A    between atoms: _352  and  _353
REMARK  138  A    between atoms: _352  and  _355
REMARK  139  A    between atoms: _355  and  _356
REMARK  140  A    between atoms: _360  and  ZN_772
REMARK  141  A    between atoms: _361  and  _363
REMARK  142  A    between atoms: _363  and  _364
REMARK  143  A    between atoms: _363  and  _366
REMARK  144  A    between atoms: _366  and  _367
REMARK  145  A    between atoms: _367  and  _368
REMARK  146  A    between atoms: _371  and  _373
REMARK  147  A    between atoms: _373  and  _374
REMARK  148  A    between atoms: _373  and  _376
REMARK  149  A    between atoms: _376  and  _377
REMARK  150  A    between atoms: _377  and  _378
REMARK  151  A    between atoms: _380  and  _382
REMARK  152  A    between atoms: _382  and  _383
REMARK  153  A    between atoms: _382  and  _385
REMARK  154  A    between atoms: _385  and  _386
REMARK  155  A    between atoms: _390  and  ZN_772
REMARK  156  A    between atoms: _391  and  _393
REMARK  157  A    between atoms: _393  and  _394
REMARK  158  A    between atoms: _393  and  _396
REMARK  159  A    between atoms: _396  and  _397
REMARK  160  A    between atoms: _400  and  _402
REMARK  161  A    between atoms: _402  and  _403
REMARK  162  A    between atoms: _402  and  _405
REMARK  163  A    between atoms: _405  and  _406
REMARK  164  A    between atoms: _411  and  _412
REMARK  165  A    between atoms: _414  and  _416
REMARK  166  A    between atoms: _416  and  _417
REMARK  167  A    between atoms: _416  and  _419
REMARK  168  A    between atoms: _419  and  _420
REMARK  169  A    between atoms: _426  and  _428
REMARK  170  A    between atoms: _428  and  _429
REMARK  171  A    between atoms: _428  and  _431
REMARK  172  A    between atoms: _431  and  _432
REMARK  173  A    between atoms: _437  and  _438
REMARK  174  A    between atoms: _440  and  _442
REMARK  175  A    between atoms: _442  and  _443
REMARK  176  A    between atoms: _442  and  _445
REMARK  177  A    between atoms: _445  and  _446
REMARK  178  A    between atoms: _446  and  _447
REMARK  179  A    between atoms: _447  and  _448
REMARK  180  A    between atoms: _457  and  _459
REMARK  181  A    between atoms: _459  and  _460
REMARK  182  A    between atoms: _459  and  _462
REMARK  183  A    between atoms: _462  and  _463
REMARK  184  A    between atoms: _463  and  _464
REMARK  185  A    between atoms: _467  and  _469
REMARK  186  A    between atoms: _469  and  _470
REMARK  187  A    between atoms: _472  and  _474
REMARK  188  A    between atoms: _474  and  _475
REMARK  189  A    between atoms: _474  and  _477
REMARK  190  A    between atoms: _477  and  _478
REMARK  191  A    between atoms: _484  and  _485
REMARK  192  A    between atoms: _490  and  _492
REMARK  193  A    between atoms: _492  and  _493
REMARK  194  A    between atoms: _495  and  _497
REMARK  195  A    between atoms: _497  and  _498
REMARK  196  A    between atoms: _497  and  _500
REMARK  197  A    between atoms: _500  and  _501
REMARK  198  A    between atoms: _507  and  _509
REMARK  199  A    between atoms: _509  and  _510
REMARK  200  A    between atoms: _509  and  _512
REMARK  201  A    between atoms: _512  and  _513
REMARK  202  A    between atoms: _518  and  _520
REMARK  203  A    between atoms: _520  and  _521
REMARK  204  A    between atoms: _520  and  _523
REMARK  205  A    between atoms: _523  and  _524
REMARK  206  A    between atoms: _524  and  _525
REMARK  207  A    between atoms: _525  and  _526
REMARK  208  A    between atoms: _526  and  ZN_772
REMARK  209  A    between atoms: _528  and  _530
REMARK  210  A    between atoms: _530  and  _531
REMARK  211  A    between atoms: _534  and  _536
REMARK  212  A    between atoms: _536  and  _537
REMARK  213  A    between atoms: _539  and  _541
REMARK  214  A    between atoms: _541  and  _542
REMARK  215  A    between atoms: _541  and  _544
REMARK  216  A    between atoms: _544  and  _545
REMARK  217  A    between atoms: _548  and  _550
REMARK  218  A    between atoms: _550  and  _551
REMARK  219  A    between atoms: _554  and  _556
REMARK  220  A    between atoms: _556  and  _557
REMARK  221  A    between atoms: _556  and  _559
REMARK  222  A    between atoms: _559  and  _560
REMARK  223  A    between atoms: _563  and  _565
REMARK  224  A    between atoms: _565  and  _566
REMARK  225  A    between atoms: _565  and  _568
REMARK  226  A    between atoms: _568  and  _569
REMARK  227  A    between atoms: _569  and  _570
REMARK  228  A    between atoms: _570  and  _571
REMARK  229  A    between atoms: _571  and  _572
REMARK  230  A    between atoms: _576  and  _578
REMARK  231  A    between atoms: _578  and  _579
REMARK  232  A    between atoms: _578  and  _581
REMARK  233  A    between atoms: _581  and  _582
REMARK  234  A    between atoms: _588  and  _590
REMARK  235  A    between atoms: _590  and  _591
REMARK  236  A    between atoms: _590  and  _593
REMARK  237  A    between atoms: _593  and  _594
REMARK  238  A    between atoms: _600  and  _602
REMARK  239  A    between atoms: _602  and  _603
REMARK  240  A    between atoms: _602  and  _605
REMARK  241  A    between atoms: _605  and  _606
REMARK  242  A    between atoms: _608  and  _610
REMARK  243  A    between atoms: _610  and  _611
REMARK  244  A    between atoms: _610  and  _613
REMARK  245  A    between atoms: _616  and  _618
REMARK  246  A    between atoms: _618  and  _619
REMARK  247  A    between atoms: _618  and  _621
REMARK  248  A    between atoms: _621  and  _622
REMARK  249  A    between atoms: _622  and  _623
REMARK  250  A    between atoms: _623  and  _624
REMARK  251  A    between atoms: _624  and  _625
REMARK  252  A    between atoms: _629  and  _631
REMARK  253  A    between atoms: _631  and  _632
REMARK  254  A    between atoms: _631  and  _634
REMARK  255  A    between atoms: _634  and  _635
REMARK  256  A    between atoms: _641  and  _643
REMARK  257  A    between atoms: _643  and  _644
REMARK  258  A    between atoms: _643  and  _646
REMARK  259  A    between atoms: _646  and  _647
REMARK  260  A    between atoms: _652  and  _654
REMARK  261  A    between atoms: _654  and  _655
REMARK  262  A    between atoms: _654  and  _657
REMARK  263  A    between atoms: _657  and  _658
REMARK  264  A    between atoms: _660  and  _662
REMARK  265  A    between atoms: _662  and  _663
REMARK  266  A    between atoms: _662  and  _665
REMARK  267  A    between atoms: _665  and  _666
REMARK  268  A    between atoms: _668  and  _670
REMARK  269  A    between atoms: _670  and  _671
REMARK  270  A    between atoms: _670  and  _673
REMARK  271  A    between atoms: _677  and  _678
REMARK  272  A    between atoms: _683  and  _685
REMARK  273  A    between atoms: _685  and  _686
REMARK  274  A    between atoms: _685  and  _688
REMARK  275  A    between atoms: _688  and  _689
REMARK  276  A    between atoms: _694  and  _695
REMARK  277  A    between atoms: _697  and  _699
REMARK  278  A    between atoms: _699  and  _700
REMARK  279  A    between atoms: _699  and  _702
REMARK  280  A    between atoms: _702  and  _703
REMARK  281  A    between atoms: _703  and  _704
REMARK  282  A    between atoms: _704  and  _705
REMARK  283  A    between atoms: _714  and  _716
REMARK  284  A    between atoms: _716  and  _717
REMARK  285  A    between atoms: _716  and  _719
REMARK  286  A    between atoms: _719  and  _720
REMARK  287  A    between atoms: _725  and  _726
REMARK  288  A    between atoms: _728  and  _730
REMARK  289  A    between atoms: _730  and  _731
REMARK  290  A    between atoms: _730  and  _733
REMARK  291  A    between atoms: _733  and  _734
REMARK  292  A    between atoms: _740  and  _742
REMARK  293  A    between atoms: _742  and  _743
REMARK  294  A    between atoms: _742  and  _745
REMARK  295  A    between atoms: _745  and  _746
REMARK  296  A    between atoms: _748  and  _750
REMARK  297  A    between atoms: _750  and  _751
REMARK  298  A    between atoms: _750  and  _753
REMARK  299  A    between atoms: _753  and  _754
REMARK  300  A    between atoms: _760  and  _762
REMARK  301  A    between atoms: _762  and  _763
REMARK  302  A    between atoms: _762  and  _765
REMARK  303  A    between atoms: _765  and  _766
REMARK  304  A    between atoms: _766  and  _767
REMARK                            x       y       z     vdW  Elec       q    Type
REMARK                         _______ _______ _______ _____ _____    ______ ____
ROOT
ATOM      1  CA  ASN A   2      10.516 -14.220 -32.659  0.00  0.00    +0.146 C 
ENDROOT
BRANCH   1   4
ATOM      2  C   GLY A   1      11.793 -15.617 -34.221  0.00  0.00    +0.240 C 
ATOM      3  O   GLY A   1      12.737 -15.784 -33.445  0.00  0.00    -0.274 OA
ATOM      4  N   ASN A   2      10.680 -14.964 -33.900  0.00  0.00    -0.298 N 
ATOM      5  H   ASN A   2       9.885 -14.986 -34.570  0.00  0.00    +0.150 HD
BRANCH   2   6
ATOM      6  CA  GLY A   1      11.839 -16.174 -35.628  0.00  0.00    +0.169 C 
BRANCH   6   7
ATOM      7  N   GLY A   1      10.705 -15.777 -36.471  0.00  0.00    -0.236 NA
ATOM      8  H   GLY A   1       9.858 -16.381 -36.492  0.00  0.00    +0.142 HD
ENDBRANCH   6   7
ENDBRANCH   2   6
ENDBRANCH   1   4
BRANCH   1   9
ATOM      9  C   ASN A   2       9.051 -14.265 -32.252  0.00  0.00    +0.227 C 
ATOM     10  O   ASN A   2       8.168 -14.137 -33.102  0.00  0.00    -0.286 OA
ENDBRANCH   1   9
BRANCH   1  11
ATOM     11  CB  ASN A   2      10.972 -12.771 -32.865  0.00  0.00    +0.112 C 
BRANCH  11  12
ATOM     12  CG  ASN A   2      10.704 -11.896 -31.663  0.00  0.00    +0.222 C 
ATOM     13  ND2 ASN A   2      11.705 -11.754 -30.798  0.00  0.00    -0.329 N 
ATOM     14 HD21 ASN A   2      11.581 -11.162 -29.952  0.00  0.00    +0.145 HD
ATOM     15 HD22 ASN A   2      12.611 -12.235 -30.968  0.00  0.00    +0.145 HD
ATOM     16  OD1 ASN A   2       9.611 -11.349 -31.511  0.00  0.00    -0.275 OA
ENDBRANCH  11  12
ENDBRANCH   1  11
TORSDOF 6
REMARK  Name = ../refined-set-2016/2xy9/2xy9_pocket.pdb
REMARK  304 active torsions:
REMARK  status: ('A' for Active; 'I' for Inactive)
REMARK    1  A    between atoms: _1  and  _3
REMARK    2  A    between atoms: _3  and  _4
REMARK    3  A    between atoms: _3  and  _6
REMARK    4  A    between atoms: _6  and  _7
REMARK    5  A    between atoms: _12  and  _14
REMARK    6  A    between atoms: _14  and  _15
REMARK    7  A    between atoms: _14  and  _17
REMARK    8  A    between atoms: _17  and  _18
REMARK    9  A    between atoms: _23  and  _25
REMARK   10  A    between atoms: _25  and  _26
REMARK   11  A    between atoms: _25  and  _28
REMARK   12  A    between atoms: _28  and  _29
REMARK   13  A    between atoms: _29  and  _30
REMARK   14  A    between atoms: _33  and  _35
REMARK   15  A    between atoms: _35  and  _36
REMARK   16  A    between atoms: _35  and  _38
REMARK   17  A    between atoms: _38  and  _39
REMARK   18  A    between atoms: _44  and  _45
REMARK   19  A    between atoms: _47  and  _49
REMARK   20  A    between atoms: _49  and  _50
REMARK   21  A    between atoms: _49  and  _52
REMARK   22  A    between atoms: _52  and  _53
REMARK   23  A    between atoms: _56  and  _58
REMARK   24  A    between atoms: _58  and  _59
REMARK   25  A    between atoms: _61  and  _63
REMARK   26  A    between atoms: _63  and  _64
REMARK   27  A    between atoms: _63  and  _66
REMARK   28  A    between atoms: _66  and  _67
REMARK   29  A    between atoms: _72  and  _74
REMARK   30  A    between atoms: _74  and  _75
REMARK   31  A    between atoms: _74  and  _77
REMARK   32  A    between atoms: _77  and  _78
REMARK   33  A    between atoms: _88  and  _90
REMARK   34  A    between atoms: _90  and  _91
REMARK   35  A    between atoms: _90  and  _93
REMARK   36  A    between atoms: _93  and  _94
REMARK   37  A    between atoms: _94  and  _95
REMARK   38  A    between atoms: _100  and  _102
REMARK   39  A    between atoms: _102  and  _103
REMARK   40  A    between atoms: _102  and  _105
REMARK   41  A    between atoms: _105  and  _106
REMARK   42  A    between atoms: _109  and  _111
REMARK   43  A    between atoms: _111  and  _112
REMARK   44  A    between atoms: _111  and  _114
REMARK   45  A    between atoms: _114  and  _115
REMARK   46  A    between atoms: _125  and  _127
REMARK   47  A    between atoms: _127  and  _128
REMARK   48  A    between atoms: _127  and  _130
REMARK   49  A    between atoms: _130  and  _131
REMARK   50  A    between atoms: _133  and  _135
REMARK   51  A    between atoms: _135  and  _136
REMARK   52  A    between atoms: _135  and  _138
REMARK   53  A    between atoms: _138  and  _139
REMARK   54  A    between atoms: _144  and  _146
REMARK   55  A    between atoms: _146  and  _147
REMARK   56  A    between atoms: _146  and  _149
REMARK   57  A    between atoms: _152  and  _154
REMARK   58  A    between atoms: _154  and  _155
REMARK   59  A    between atoms: _154  and  _157
REMARK   60  A    between atoms: _159  and  _161
REMARK   61  A    between atoms: _161  and  _162
REMARK   62  A    between atoms: _161  and  _164
REMARK   63  A    between atoms: _164  and  _165
REMARK   64  A    between atoms: _170  and  _172
REMARK   65  A    between atoms: _172  and  _173
REMARK   66  A    between atoms: _176  and  _178
REMARK   67  A    between atoms: _178  and  _179
REMARK   68  A    between atoms: _178  and  _181
REMARK   69  A    between atoms: _181  and  _182
REMARK   70  A    between atoms: _184  and  _186
REMARK   71  A    between atoms: _186  and  _187
REMARK   72  A    between atoms: _190  and  _192
REMARK   73  A    between atoms: _192  and  _193
REMARK   74  A    between atoms: _192  and  _195
REMARK   75  A    between atoms: _195  and  _196
REMARK   76  A    between atoms: _206  and  _208
REMARK   77  A    between atoms: _208  and  _209
REMARK   78  A    between atoms: _208  and  _211
REMARK   79  A    between atoms: _211  and  _212
REMARK   80  A    between atoms: _215  and  _217
REMARK   81  A    between atoms: _217  and  _218
REMARK   82  A    between atoms: _217  and  _220
REMARK   83  A    between atoms: _220  and  _221
REMARK   84  A    between atoms: _226  and  _227
REMARK   85  A    between atoms: _229  and  _231
REMARK   86  A    between atoms: _231  and  _232
REMARK   87  A    between atoms: _231  and  _234
REMARK   88  A    between atoms: _234  and  _235
REMARK   89  A    between atoms: _235  and  _236
REMARK   90  A    between atoms: _236  and  _237
REMARK   91  A    between atoms: _246  and  _248
REMARK   92  A    between atoms: _248  and  _249
REMARK   93  A    between atoms: _248  and  _251
REMARK   94  A    between atoms: _251  and  _252
REMARK   95  A    between atoms: _255  and  _257
REMARK   96  A    between atoms: _257  and  _258
REMARK   97  A    between atoms: _257  and  _260
REMARK   98  A    between atoms: _260  and  _261
REMARK   99  A    between atoms: _261  and  _262
REMARK  100  A    between atoms: _262  and  _263
REMARK  101  A    between atoms: _263  and  _264
REMARK  102  A    between atoms: _268  and  _270
REMARK  103  A    between atoms: _270  and  _271
REMARK  104  A    between atoms: _270  and  _273
REMARK  105  A    between atoms: _273  and  _274
REMARK  106  A    between atoms: _274  and  _275
REMARK  107  A    between atoms: _280  and  _282
REMARK  108  A    between atoms: _282  and  _283
REMARK  109  A    between atoms: _282  and  _285
REMARK  110  A    between atoms: _285  and  _286
REMARK  111  A    between atoms: _289  and  _291
REMARK  112  A    between atoms: _291  and  _292
REMARK  113  A    between atoms: _291  and  _294
REMARK  114  A    between atoms: _294  and  _295
REMARK  115  A    between atoms: _295  and  _296
REMARK  116  A    between atoms: _299  and  _301
REMARK  117  A    between atoms: _301  and  _302
REMARK  118  A    between atoms: _301  and  _304
REMARK  119  A    between atoms: _304  and  _305
REMARK  120  A    between atoms: _308  and  _310
REMARK  121  A    between atoms: _310  and  _311
REMARK  122  A    between atoms: _310  and  _313
REMARK  123  A    between atoms: _313  and  _314
REMARK  124  A    between atoms: _317  and  _319
REMARK  125  A    between atoms: _319  and  _320
REMARK  126  A    between atoms: _319  and  _322
REMARK  127  A    between atoms: _325  and  _327
REMARK  128  A    between atoms: _327  and  _328
REMARK  129  A    between atoms: _327  and  _330
REMARK  130  A    between atoms: _333  and  _335
REMARK  131  A    between atoms: _335  and  _336
REMARK  132  A    between atoms: _339  and  _341
REMARK  133  A    between atoms: _341  and  _342
REMARK  134  A    between atoms: _341  and  _344
REMARK  135  A    between atoms: _344  and  _345
REMARK  136  A    between atoms: _350  and  _352
REMARK  137  A    between atoms: _352  and  _353
REMARK  138  A    between atoms: _352  and  _355
REMARK  139  A    between atoms: _355  and  _356
REMARK  140  A    between atoms: _360  and  ZN_772
REMARK  141  A    between atoms: _361  and  _363
REMARK  142  A    between atoms: _363  and  _364
REMARK  143  A    between atoms: _363  and  _366
REMARK  144  A    between atoms: _366  and  _367
REMARK  145  A    between atoms: _367  and  _368
REMARK  146  A    between atoms: _371  and  _373
REMARK  147  A    between atoms: _373  and  _374
REMARK  148  A    between atoms: _373  and  _376
REMARK  149  A    between atoms: _376  and  _377
REMARK  150  A    between atoms: _377  and  _378
REMARK  151  A    between atoms: _380  and  _382
REMARK  152  A    between atoms: _382  and  _383
REMARK  153  A    between atoms: _382  and  _385
REMARK  154  A    between atoms: _385  and  _386
REMARK  155  A    between atoms: _390  and  ZN_772
REMARK  156  A    between atoms: _391  and  _393
REMARK  157  A    between atoms: _393  and  _394
REMARK  158  A    between atoms: _393  and  _396
REMARK  159  A    between atoms: _396  and  _397
REMARK  160  A    between atoms: _400  and  _402
REMARK  161  A    between atoms: _402  and  _403
REMARK  162  A    between atoms: _402  and  _405
REMARK  163  A    between atoms: _405  and  _406
REMARK  164  A    between atoms: _411  and  _412
REMARK  165  A    between atoms: _414  and  _416
REMARK  166  A    between atoms: _416  and  _417
REMARK  167  A    between atoms: _416  and  _419
REMARK  168  A    between atoms: _419  and  _420
REMARK  169  A    between atoms: _426  and  _428
REMARK  170  A    between atoms: _428  and  _429
REMARK  171  A    between atoms: _428  and  _431
REMARK  172  A    between atoms: _431  and  _432
REMARK  173  A    between atoms: _437  and  _438
REMARK  174  A    between atoms: _440  and  _442
REMARK  175  A    between atoms: _442  and  _443
REMARK  176  A    between atoms: _442  and  _445
REMARK  177  A    between atoms: _445  and  _446
REMARK  178  A    between atoms: _446  and  _447
REMARK  179  A    between atoms: _447  and  _448
REMARK  180  A    between atoms: _457  and  _459
REMARK  181  A    between atoms: _459  and  _460
REMARK  182  A    between atoms: _459  and  _462
REMARK  183  A    between atoms: _462  and  _463
REMARK  184  A    between atoms: _463  and  _464
REMARK  185  A    between atoms: _467  and  _469
REMARK  186  A    between atoms: _469  and  _470
REMARK  187  A    between atoms: _472  and  _474
REMARK  188  A    between atoms: _474  and  _475
REMARK  189  A    between atoms: _474  and  _477
REMARK  190  A    between atoms: _477  and  _478
REMARK  191  A    between atoms: _484  and  _485
REMARK  192  A    between atoms: _490  and  _492
REMARK  193  A    between atoms: _492  and  _493
REMARK  194  A    between atoms: _495  and  _497
REMARK  195  A    between atoms: _497  and  _498
REMARK  196  A    between atoms: _497  and  _500
REMARK  197  A    between atoms: _500  and  _501
REMARK  198  A    between atoms: _507  and  _509
REMARK  199  A    between atoms: _509  and  _510
REMARK  200  A    between atoms: _509  and  _512
REMARK  201  A    between atoms: _512  and  _513
REMARK  202  A    between atoms: _518  and  _520
REMARK  203  A    between atoms: _520  and  _521
REMARK  204  A    between atoms: _520  and  _523
REMARK  205  A    between atoms: _523  and  _524
REMARK  206  A    between atoms: _524  and  _525
REMARK  207  A    between atoms: _525  and  _526
REMARK  208  A    between atoms: _526  and  ZN_772
REMARK  209  A    between atoms: _528  and  _530
REMARK  210  A    between atoms: _530  and  _531
REMARK  211  A    between atoms: _534  and  _536
REMARK  212  A    between atoms: _536  and  _537
REMARK  213  A    between atoms: _539  and  _541
REMARK  214  A    between atoms: _541  and  _542
REMARK  215  A    between atoms: _541  and  _544
REMARK  216  A    between atoms: _544  and  _545
REMARK  217  A    between atoms: _548  and  _550
REMARK  218  A    between atoms: _550  and  _551
REMARK  219  A    between atoms: _554  and  _556
REMARK  220  A    between atoms: _556  and  _557
REMARK  221  A    between atoms: _556  and  _559
REMARK  222  A    between atoms: _559  and  _560
REMARK  223  A    between atoms: _563  and  _565
REMARK  224  A    between atoms: _565  and  _566
REMARK  225  A    between atoms: _565  and  _568
REMARK  226  A    between atoms: _568  and  _569
REMARK  227  A    between atoms: _569  and  _570
REMARK  228  A    between atoms: _570  and  _571
REMARK  229  A    between atoms: _571  and  _572
REMARK  230  A    between atoms: _576  and  _578
REMARK  231  A    between atoms: _578  and  _579
REMARK  232  A    between atoms: _578  and  _581
REMARK  233  A    between atoms: _581  and  _582
REMARK  234  A    between atoms: _588  and  _590
REMARK  235  A    between atoms: _590  and  _591
REMARK  236  A    between atoms: _590  and  _593
REMARK  237  A    between atoms: _593  and  _594
REMARK  238  A    between atoms: _600  and  _602
REMARK  239  A    between atoms: _602  and  _603
REMARK  240  A    between atoms: _602  and  _605
REMARK  241  A    between atoms: _605  and  _606
REMARK  242  A    between atoms: _608  and  _610
REMARK  243  A    between atoms: _610  and  _611
REMARK  244  A    between atoms: _610  and  _613
REMARK  245  A    between atoms: _616  and  _618
REMARK  246  A    between atoms: _618  and  _619
REMARK  247  A    between atoms: _618  and  _621
REMARK  248  A    between atoms: _621  and  _622
REMARK  249  A    between atoms: _622  and  _623
REMARK  250  A    between atoms: _623  and  _624
REMARK  251  A    between atoms: _624  and  _625
REMARK  252  A    between atoms: _629  and  _631
REMARK  253  A    between atoms: _631  and  _632
REMARK  254  A    between atoms: _631  and  _634
REMARK  255  A    between atoms: _634  and  _635
REMARK  256  A    between atoms: _641  and  _643
REMARK  257  A    between atoms: _643  and  _644
REMARK  258  A    between atoms: _643  and  _646
REMARK  259  A    between atoms: _646  and  _647
REMARK  260  A    between atoms: _652  and  _654
REMARK  261  A    between atoms: _654  and  _655
REMARK  262  A    between atoms: _654  and  _657
REMARK  263  A    between atoms: _657  and  _658
REMARK  264  A    between atoms: _660  and  _662
REMARK  265  A    between atoms: _662  and  _663
REMARK  266  A    between atoms: _662  and  _665
REMARK  267  A    between atoms: _665  and  _666
REMARK  268  A    between atoms: _668  and  _670
REMARK  269  A    between atoms: _670  and  _671
REMARK  270  A    between atoms: _670  and  _673
REMARK  271  A    between atoms: _677  and  _678
REMARK  272  A    between atoms: _683  and  _685
REMARK  273  A    between atoms: _685  and  _686
REMARK  274  A    between atoms: _685  and  _688
REMARK  275  A    between atoms: _688  and  _689
REMARK  276  A    between atoms: _694  and  _695
REMARK  277  A    between atoms: _697  and  _699
REMARK  278  A    between atoms: _699  and  _700
REMARK  279  A    between atoms: _699  and  _702
REMARK  280  A    between atoms: _702  and  _703
REMARK  281  A    between atoms: _703  and  _704
REMARK  282  A    between atoms: _704  and  _705
REMARK  283  A    between atoms: _714  and  _716
REMARK  284  A    between atoms: _716  and  _717
REMARK  285  A    between atoms: _716  and  _719
REMARK  286  A    between atoms: _719  and  _720
REMARK  287  A    between atoms: _725  and  _726
REMARK  288  A    between atoms: _728  and  _730
REMARK  289  A    between atoms: _730  and  _731
REMARK  290  A    between atoms: _730  and  _733
REMARK  291  A    between atoms: _733  and  _734
REMARK  292  A    between atoms: _740  and  _742
REMARK  293  A    between atoms: _742  and  _743
REMARK  294  A    between atoms: _742  and  _745
REMARK  295  A    between atoms: _745  and  _746
REMARK  296  A    between atoms: _748  and  _750
REMARK  297  A    between atoms: _750  and  _751
REMARK  298  A    between atoms: _750  and  _753
REMARK  299  A    between atoms: _753  and  _754
REMARK  300  A    between atoms: _760  and  _762
REMARK  301  A    between atoms: _762  and  _763
REMARK  302  A    between atoms: _762  and  _765
REMARK  303  A    between atoms: _765  and  _766
REMARK  304  A    between atoms: _766  and  _767
REMARK                            x       y       z     vdW  Elec       q    Type
REMARK                         _______ _______ _______ _____ _____    ______ ____
ROOT
ATOM      1  CG  TRP A   1       6.223 -10.548 -28.880  0.00  0.00    -0.002 A 
ATOM      2  CD2 TRP A   1       7.237 -11.111 -28.042  0.00  0.00    +0.013 A 
ATOM      3  CE2 TRP A   1       6.598 -11.576 -26.871  0.00  0.00    +0.056 A 
ATOM      4  CZ2 TRP A   1       7.299 -12.174 -25.820  0.00  0.00    +0.017 A 
ATOM      5  CH2 TRP A   1       8.660 -12.296 -25.955  0.00  0.00    +0.001 A 
ATOM      6  CZ3 TRP A   1       9.324 -11.848 -27.108  0.00  0.00    +0.000 A 
ATOM      7  NE1 TRP A   1       5.259 -11.319 -27.007  0.00  0.00    -0.352 N 
ATOM      8  HE1 TRP A   1       4.525 -11.548 -26.306  0.00  0.00    +0.166 HD
ATOM      9  CE3 TRP A   1       8.624 -11.253 -28.157  0.00  0.00    +0.001 A 
ATOM     10  CD1 TRP A   1       5.044 -10.711 -28.218  0.00  0.00    +0.068 A 
ENDROOT
BRANCH   1  11
ATOM     11  CB  TRP A   1       6.409  -9.978 -30.254  0.00  0.00    +0.053 C 
BRANCH  11  12
ATOM     12  CA  TRP A   1       6.204 -11.080 -31.311  0.00  0.00    +0.137 C 
BRANCH  12  13
ATOM     13  N   TRP A   1       7.012 -12.250 -30.983  0.00  0.00    -0.239 NA
ATOM     14  H   TRP A   1       8.036 -12.133 -30.843  0.00  0.00    +0.142 HD
ENDBRANCH  12  13
BRANCH  12  15
ATOM     15  C   TRP A   1       6.476 -10.560 -32.717  0.00  0.00    +0.224 C 
ATOM     16  O   TRP A   1       5.963  -9.503 -33.088  0.00  0.00    -0.287 OA
ENDBRANCH  12  15
ENDBRANCH  11  12
ENDBRANCH   1  11
TORSDOF 4
REMARK  Name = ../refined-set-2016/2xy9/2xy9_pocket.pdb
REMARK  304 active torsions:
REMARK  status: ('A' for Active; 'I' for Inactive)
REMARK    1  A    between atoms: _1  and  _3
REMARK    2  A    between atoms: _3  and  _4
REMARK    3  A    between atoms: _3  and  _6
REMARK    4  A    between atoms: _6  and  _7
REMARK    5  A    between atoms: _12  and  _14
REMARK    6  A    between atoms: _14  and  _15
REMARK    7  A    between atoms: _14  and  _17
REMARK    8  A    between atoms: _17  and  _18
REMARK    9  A    between atoms: _23  and  _25
REMARK   10  A    between atoms: _25  and  _26
REMARK   11  A    between atoms: _25  and  _28
REMARK   12  A    between atoms: _28  and  _29
REMARK   13  A    between atoms: _29  and  _30
REMARK   14  A    between atoms: _33  and  _35
REMARK   15  A    between atoms: _35  and  _36
REMARK   16  A    between atoms: _35  and  _38
REMARK   17  A    between atoms: _38  and  _39
REMARK   18  A    between atoms: _44  and  _45
REMARK   19  A    between atoms: _47  and  _49
REMARK   20  A    between atoms: _49  and  _50
REMARK   21  A    between atoms: _49  and  _52
REMARK   22  A    between atoms: _52  and  _53
REMARK   23  A    between atoms: _56  and  _58
REMARK   24  A    between atoms: _58  and  _59
REMARK   25  A    between atoms: _61  and  _63
REMARK   26  A    between atoms: _63  and  _64
REMARK   27  A    between atoms: _63  and  _66
REMARK   28  A    between atoms: _66  and  _67
REMARK   29  A    between atoms: _72  and  _74
REMARK   30  A    between atoms: _74  and  _75
REMARK   31  A    between atoms: _74  and  _77
REMARK   32  A    between atoms: _77  and  _78
REMARK   33  A    between atoms: _88  and  _90
REMARK   34  A    between atoms: _90  and  _91
REMARK   35  A    between atoms: _90  and  _93
REMARK   36  A    between atoms: _93  and  _94
REMARK   37  A    between atoms: _94  and  _95
REMARK   38  A    between atoms: _100  and  _102
REMARK   39  A    between atoms: _102  and  _103
REMARK   40  A    between atoms: _102  and  _105
REMARK   41  A    between atoms: _105  and  _106
REMARK   42  A    between atoms: _109  and  _111
REMARK   43  A    between atoms: _111  and  _112
REMARK   44  A    between atoms: _111  and  _114
REMARK   45  A    between atoms: _114  and  _115
REMARK   46  A    between atoms: _125  and  _127
REMARK   47  A    between atoms: _127  and  _128
REMARK   48  A    between atoms: _127  and  _130
REMARK   49  A    between atoms: _130  and  _131
REMARK   50  A    between atoms: _133  and  _135
REMARK   51  A    between atoms: _135  and  _136
REMARK   52  A    between atoms: _135  and  _138
REMARK   53  A    between atoms: _138  and  _139
REMARK   54  A    between atoms: _144  and  _146
REMARK   55  A    between atoms: _146  and  _147
REMARK   56  A    between atoms: _146  and  _149
REMARK   57  A    between atoms: _152  and  _154
REMARK   58  A    between atoms: _154  and  _155
REMARK   59  A    between atoms: _154  and  _157
REMARK   60  A    between atoms: _159  and  _161
REMARK   61  A    between atoms: _161  and  _162
REMARK   62  A    between atoms: _161  and  _164
REMARK   63  A    between atoms: _164  and  _165
REMARK   64  A    between atoms: _170  and  _172
REMARK   65  A    between atoms: _172  and  _173
REMARK   66  A    between atoms: _176  and  _178
REMARK   67  A    between atoms: _178  and  _179
REMARK   68  A    between atoms: _178  and  _181
REMARK   69  A    between atoms: _181  and  _182
REMARK   70  A    between atoms: _184  and  _186
REMARK   71  A    between atoms: _186  and  _187
REMARK   72  A    between atoms: _190  and  _192
REMARK   73  A    between atoms: _192  and  _193
REMARK   74  A    between atoms: _192  and  _195
REMARK   75  A    between atoms: _195  and  _196
REMARK   76  A    between atoms: _206  and  _208
REMARK   77  A    between atoms: _208  and  _209
REMARK   78  A    between atoms: _208  and  _211
REMARK   79  A    between atoms: _211  and  _212
REMARK   80  A    between atoms: _215  and  _217
REMARK   81  A    between atoms: _217  and  _218
REMARK   82  A    between atoms: _217  and  _220
REMARK   83  A    between atoms: _220  and  _221
REMARK   84  A    between atoms: _226  and  _227
REMARK   85  A    between atoms: _229  and  _231
REMARK   86  A    between atoms: _231  and  _232
REMARK   87  A    between atoms: _231  and  _234
REMARK   88  A    between atoms: _234  and  _235
REMARK   89  A    between atoms: _235  and  _236
REMARK   90  A    between atoms: _236  and  _237
REMARK   91  A    between atoms: _246  and  _248
REMARK   92  A    between atoms: _248  and  _249
REMARK   93  A    between atoms: _248  and  _251
REMARK   94  A    between atoms: _251  and  _252
REMARK   95  A    between atoms: _255  and  _257
REMARK   96  A    between atoms: _257  and  _258
REMARK   97  A    between atoms: _257  and  _260
REMARK   98  A    between atoms: _260  and  _261
REMARK   99  A    between atoms: _261  and  _262
REMARK  100  A    between atoms: _262  and  _263
REMARK  101  A    between atoms: _263  and  _264
REMARK  102  A    between atoms: _268  and  _270
REMARK  103  A    between atoms: _270  and  _271
REMARK  104  A    between atoms: _270  and  _273
REMARK  105  A    between atoms: _273  and  _274
REMARK  106  A    between atoms: _274  and  _275
REMARK  107  A    between atoms: _280  and  _282
REMARK  108  A    between atoms: _282  and  _283
REMARK  109  A    between atoms: _282  and  _285
REMARK  110  A    between atoms: _285  and  _286
REMARK  111  A    between atoms: _289  and  _291
REMARK  112  A    between atoms: _291  and  _292
REMARK  113  A    between atoms: _291  and  _294
REMARK  114  A    between atoms: _294  and  _295
REMARK  115  A    between atoms: _295  and  _296
REMARK  116  A    between atoms: _299  and  _301
REMARK  117  A    between atoms: _301  and  _302
REMARK  118  A    between atoms: _301  and  _304
REMARK  119  A    between atoms: _304  and  _305
REMARK  120  A    between atoms: _308  and  _310
REMARK  121  A    between atoms: _310  and  _311
REMARK  122  A    between atoms: _310  and  _313
REMARK  123  A    between atoms: _313  and  _314
REMARK  124  A    between atoms: _317  and  _319
REMARK  125  A    between atoms: _319  and  _320
REMARK  126  A    between atoms: _319  and  _322
REMARK  127  A    between atoms: _325  and  _327
REMARK  128  A    between atoms: _327  and  _328
REMARK  129  A    between atoms: _327  and  _330
REMARK  130  A    between atoms: _333  and  _335
REMARK  131  A    between atoms: _335  and  _336
REMARK  132  A    between atoms: _339  and  _341
REMARK  133  A    between atoms: _341  and  _342
REMARK  134  A    between atoms: _341  and  _344
REMARK  135  A    between atoms: _344  and  _345
REMARK  136  A    between atoms: _350  and  _352
REMARK  137  A    between atoms: _352  and  _353
REMARK  138  A    between atoms: _352  and  _355
REMARK  139  A    between atoms: _355  and  _356
REMARK  140  A    between atoms: _360  and  ZN_772
REMARK  141  A    between atoms: _361  and  _363
REMARK  142  A    between atoms: _363  and  _364
REMARK  143  A    between atoms: _363  and  _366
REMARK  144  A    between atoms: _366  and  _367
REMARK  145  A    between atoms: _367  and  _368
REMARK  146  A    between atoms: _371  and  _373
REMARK  147  A    between atoms: _373  and  _374
REMARK  148  A    between atoms: _373  and  _376
REMARK  149  A    between atoms: _376  and  _377
REMARK  150  A    between atoms: _377  and  _378
REMARK  151  A    between atoms: _380  and  _382
REMARK  152  A    between atoms: _382  and  _383
REMARK  153  A    between atoms: _382  and  _385
REMARK  154  A    between atoms: _385  and  _386
REMARK  155  A    between atoms: _390  and  ZN_772
REMARK  156  A    between atoms: _391  and  _393
REMARK  157  A    between atoms: _393  and  _394
REMARK  158  A    between atoms: _393  and  _396
REMARK  159  A    between atoms: _396  and  _397
REMARK  160  A    between atoms: _400  and  _402
REMARK  161  A    between atoms: _402  and  _403
REMARK  162  A    between atoms: _402  and  _405
REMARK  163  A    between atoms: _405  and  _406
REMARK  164  A    between atoms: _411  and  _412
REMARK  165  A    between atoms: _414  and  _416
REMARK  166  A    between atoms: _416  and  _417
REMARK  167  A    between atoms: _416  and  _419
REMARK  168  A    between atoms: _419  and  _420
REMARK  169  A    between atoms: _426  and  _428
REMARK  170  A    between atoms: _428  and  _429
REMARK  171  A    between atoms: _428  and  _431
REMARK  172  A    between atoms: _431  and  _432
REMARK  173  A    between atoms: _437  and  _438
REMARK  174  A    between atoms: _440  and  _442
REMARK  175  A    between atoms: _442  and  _443
REMARK  176  A    between atoms: _442  and  _445
REMARK  177  A    between atoms: _445  and  _446
REMARK  178  A    between atoms: _446  and  _447
REMARK  179  A    between atoms: _447  and  _448
REMARK  180  A    between atoms: _457  and  _459
REMARK  181  A    between atoms: _459  and  _460
REMARK  182  A    between atoms: _459  and  _462
REMARK  183  A    between atoms: _462  and  _463
REMARK  184  A    between atoms: _463  and  _464
REMARK  185  A    between atoms: _467  and  _469
REMARK  186  A    between atoms: _469  and  _470
REMARK  187  A    between atoms: _472  and  _474
REMARK  188  A    between atoms: _474  and  _475
REMARK  189  A    between atoms: _474  and  _477
REMARK  190  A    between atoms: _477  and  _478
REMARK  191  A    between atoms: _484  and  _485
REMARK  192  A    between atoms: _490  and  _492
REMARK  193  A    between atoms: _492  and  _493
REMARK  194  A    between atoms: _495  and  _497
REMARK  195  A    between atoms: _497  and  _498
REMARK  196  A    between atoms: _497  and  _500
REMARK  197  A    between atoms: _500  and  _501
REMARK  198  A    between atoms: _507  and  _509
REMARK  199  A    between atoms: _509  and  _510
REMARK  200  A    between atoms: _509  and  _512
REMARK  201  A    between atoms: _512  and  _513
REMARK  202  A    between atoms: _518  and  _520
REMARK  203  A    between atoms: _520  and  _521
REMARK  204  A    between atoms: _520  and  _523
REMARK  205  A    between atoms: _523  and  _524
REMARK  206  A    between atoms: _524  and  _525
REMARK  207  A    between atoms: _525  and  _526
REMARK  208  A    between atoms: _526  and  ZN_772
REMARK  209  A    between atoms: _528  and  _530
REMARK  210  A    between atoms: _530  and  _531
REMARK  211  A    between atoms: _534  and  _536
REMARK  212  A    between atoms: _536  and  _537
REMARK  213  A    between atoms: _539  and  _541
REMARK  214  A    between atoms: _541  and  _542
REMARK  215  A    between atoms: _541  and  _544
REMARK  216  A    between atoms: _544  and  _545
REMARK  217  A    between atoms: _548  and  _550
REMARK  218  A    between atoms: _550  and  _551
REMARK  219  A    between atoms: _554  and  _556
REMARK  220  A    between atoms: _556  and  _557
REMARK  221  A    between atoms: _556  and  _559
REMARK  222  A    between atoms: _559  and  _560
REMARK  223  A    between atoms: _563  and  _565
REMARK  224  A    between atoms: _565  and  _566
REMARK  225  A    between atoms: _565  and  _568
REMARK  226  A    between atoms: _568  and  _569
REMARK  227  A    between atoms: _569  and  _570
REMARK  228  A    between atoms: _570  and  _571
REMARK  229  A    between atoms: _571  and  _572
REMARK  230  A    between atoms: _576  and  _578
REMARK  231  A    between atoms: _578  and  _579
REMARK  232  A    between atoms: _578  and  _581
REMARK  233  A    between atoms: _581  and  _582
REMARK  234  A    between atoms: _588  and  _590
REMARK  235  A    between atoms: _590  and  _591
REMARK  236  A    between atoms: _590  and  _593
REMARK  237  A    between atoms: _593  and  _594
REMARK  238  A    between atoms: _600  and  _602
REMARK  239  A    between atoms: _602  and  _603
REMARK  240  A    between atoms: _602  and  _605
REMARK  241  A    between atoms: _605  and  _606
REMARK  242  A    between atoms: _608  and  _610
REMARK  243  A    between atoms: _610  and  _611
REMARK  244  A    between atoms: _610  and  _613
REMARK  245  A    between atoms: _616  and  _618
REMARK  246  A    between atoms: _618  and  _619
REMARK  247  A    between atoms: _618  and  _621
REMARK  248  A    between atoms: _621  and  _622
REMARK  249  A    between atoms: _622  and  _623
REMARK  250  A    between atoms: _623  and  _624
REMARK  251  A    between atoms: _624  and  _625
REMARK  252  A    between atoms: _629  and  _631
REMARK  253  A    between atoms: _631  and  _632
REMARK  254  A    between atoms: _631  and  _634
REMARK  255  A    between atoms: _634  and  _635
REMARK  256  A    between atoms: _641  and  _643
REMARK  257  A    between atoms: _643  and  _644
REMARK  258  A    between atoms: _643  and  _646
REMARK  259  A    between atoms: _646  and  _647
REMARK  260  A    between atoms: _652  and  _654
REMARK  261  A    between atoms: _654  and  _655
REMARK  262  A    between atoms: _654  and  _657
REMARK  263  A    between atoms: _657  and  _658
REMARK  264  A    between atoms: _660  and  _662
REMARK  265  A    between atoms: _662  and  _663
REMARK  266  A    between atoms: _662  and  _665
REMARK  267  A    between atoms: _665  and  _666
REMARK  268  A    between atoms: _668  and  _670
REMARK  269  A    between atoms: _670  and  _671
REMARK  270  A    between atoms: _670  and  _673
REMARK  271  A    between atoms: _677  and  _678
REMARK  272  A    between atoms: _683  and  _685
REMARK  273  A    between atoms: _685  and  _686
REMARK  274  A    between atoms: _685  and  _688
REMARK  275  A    between atoms: _688  and  _689
REMARK  276  A    between atoms: _694  and  _695
REMARK  277  A    between atoms: _697  and  _699
REMARK  278  A    between atoms: _699  and  _700
REMARK  279  A    between atoms: _699  and  _702
REMARK  280  A    between atoms: _702  and  _703
REMARK  281  A    between atoms: _703  and  _704
REMARK  282  A    between atoms: _704  and  _705
REMARK  283  A    between atoms: _714  and  _716
REMARK  284  A    between atoms: _716  and  _717
REMARK  285  A    between atoms: _716  and  _719
REMARK  286  A    between atoms: _719  and  _720
REMARK  287  A    between atoms: _725  and  _726
REMARK  288  A    between atoms: _728  and  _730
REMARK  289  A    between atoms: _730  and  _731
REMARK  290  A    between atoms: _730  and  _733
REMARK  291  A    between atoms: _733  and  _734
REMARK  292  A    between atoms: _740  and  _742
REMARK  293  A    between atoms: _742  and  _743
REMARK  294  A    between atoms: _742  and  _745
REMARK  295  A    between atoms: _745  and  _746
REMARK  296  A    between atoms: _748  and  _750
REMARK  297  A    between atoms: _750  and  _751
REMARK  298  A    between atoms: _750  and  _753
REMARK  299  A    between atoms: _753  and  _754
REMARK  300  A    between atoms: _760  and  _762
REMARK  301  A    between atoms: _762  and  _763
REMARK  302  A    between atoms: _762  and  _765
REMARK  303  A    between atoms: _765  and  _766
REMARK  304  A    between atoms: _766  and  _767
REMARK                            x       y       z     vdW  Elec       q    Type
REMARK                         _______ _______ _______ _____ _____    ______ ____
ROOT
ATOM      1  CA  TRP A   3      13.528 -11.120 -37.561  0.00  0.00    +0.153 C 
ENDROOT
BRANCH   1   2
ATOM      2  C   TRP A   3      14.824 -11.877 -37.863  0.00  0.00    +0.241 C 
ATOM      3  N   SER A   4      15.939 -11.516 -37.230  0.00  0.00    -0.295 N 
ATOM      4  H   SER A   4      15.897 -10.835 -36.445  0.00  0.00    +0.150 HD
ATOM      5  O   TRP A   3      14.808 -12.789 -38.687  0.00  0.00    -0.273 OA
BRANCH   3   6
ATOM      6  CA  SER A   4      17.234 -12.086 -37.647  0.00  0.00    +0.178 C 
BRANCH   6   7
ATOM      7  C   SER A   4      17.377 -13.588 -37.392  0.00  0.00    +0.243 C 
ATOM      8  N   ASN A   5      16.530 -14.145 -36.524  0.00  0.00    -0.298 N 
ATOM      9  H   ASN A   5      15.845 -13.548 -36.018  0.00  0.00    +0.150 HD
ATOM     10  O   SER A   4      18.244 -14.233 -37.986  0.00  0.00    -0.273 OA
BRANCH   8  11
ATOM     11  CA  ASN A   5      16.555 -15.587 -36.276  0.00  0.00    +0.146 C 
BRANCH  11  12
ATOM     12  C   ASN A   5      16.146 -16.437 -37.482  0.00  0.00    +0.227 C 
ATOM     13  O   ASN A   5      16.397 -17.642 -37.493  0.00  0.00    -0.286 OA
ENDBRANCH  11  12
BRANCH  11  14
ATOM     14  CB  ASN A   5      15.752 -15.960 -35.025  0.00  0.00    +0.112 C 
BRANCH  14  15
ATOM     15  CG  ASN A   5      16.445 -15.525 -33.744  0.00  0.00    +0.222 C 
ATOM     16  ND2 ASN A   5      15.661 -15.087 -32.767  0.00  0.00    -0.329 N 
ATOM     17 HD21 ASN A   5      16.078 -14.765 -31.870  0.00  0.00    +0.145 HD
ATOM     18 HD22 ASN A   5      14.630 -15.065 -32.898  0.00  0.00    +0.145 HD
ATOM     19  OD1 ASN A   5      17.673 -15.572 -33.642  0.00  0.00    -0.275 OA
ENDBRANCH  14  15
ENDBRANCH  11  14
ENDBRANCH   8  11
ENDBRANCH   6   7
BRANCH   6  20
ATOM     20  CB  SER A   4      18.419 -11.322 -37.049  0.00  0.00    +0.166 C 
BRANCH  20  21
ATOM     21  OG  SER A   4      18.483 -11.492 -35.644  0.00  0.00    -0.380 OA
ATOM     22  H   SER A   4      18.588 -12.454 -35.434  0.00  0.00    +0.211 HD
ENDBRANCH  20  21
ENDBRANCH   6  20
ENDBRANCH   3   6
ENDBRANCH   1   2
BRANCH   1  25
ATOM     23  C   THR A   2      13.035  -9.981 -35.467  0.00  0.00    +0.243 C 
ATOM     24  O   THR A   2      12.631 -11.016 -34.921  0.00  0.00    -0.273 OA
ATOM     25  N   TRP A   3      13.622  -9.972 -36.660  0.00  0.00    -0.297 N 
ATOM     26  H   TRP A   3      14.158  -9.132 -36.958  0.00  0.00    +0.150 HD
BRANCH  23  27
ATOM     27  CA  THR A   2      12.875  -8.629 -34.775  0.00  0.00    +0.176 C 
BRANCH  27  29
ATOM     28  C   GLN A   1      10.753  -7.502 -34.205  0.00  0.00    +0.238 C 
ATOM     29  N   THR A   2      11.533  -8.582 -34.197  0.00  0.00    -0.295 N 
ATOM     30  H   THR A   2      11.164  -9.446 -33.751  0.00  0.00    +0.150 HD
ATOM     31  O   GLN A   1      11.101  -6.409 -34.634  0.00  0.00    -0.274 OA
BRANCH  28  32
ATOM     32  CA  GLN A   1       9.360  -7.687 -33.623  0.00  0.00    +0.145 C 
BRANCH  32  33
ATOM     33  N   GLN A   1       8.904  -9.060 -33.799  0.00  0.00    -0.238 NA
ATOM     34  H   GLN A   1       9.153  -9.769 -33.080  0.00  0.00    +0.142 HD
ENDBRANCH  32  33
BRANCH  32  35
ATOM     35  CB  GLN A   1       9.334  -7.283 -32.144  0.00  0.00    +0.036 C 
BRANCH  35  36
ATOM     36  CG  GLN A   1      10.317  -8.039 -31.237  0.00  0.00    +0.087 C 
BRANCH  36  37
ATOM     37  CD  GLN A   1      10.066  -7.760 -29.770  0.00  0.00    +0.219 C 
ATOM     38  NE2 GLN A   1      11.120  -7.390 -29.054  0.00  0.00    -0.329 N 
ATOM     39 HE21 GLN A   1      11.011  -7.169 -28.044  0.00  0.00    +0.145 HD
ATOM     40 HE22 GLN A   1      12.055  -7.321 -29.503  0.00  0.00    +0.145 HD
ATOM     41  OE1 GLN A   1       8.935  -7.858 -29.288  0.00  0.00    -0.275 OA
ENDBRANCH  36  37
ENDBRANCH  35  36
ENDBRANCH  32  35
ENDBRANCH  28  32
ENDBRANCH  27  29
BRANCH  27  42
ATOM     42  CB  THR A   2      13.972  -8.457 -33.709  0.00  0.00    +0.137 C 
ATOM     43  CG2 THR A   2      14.041  -7.006 -33.211  0.00  0.00    +0.034 C 
BRANCH  42  44
ATOM     44  OG1 THR A   2      13.702  -9.322 -32.604  0.00  0.00    -0.382 OA
ATOM     45  HG1 THR A   2      14.408  -9.211 -31.919  0.00  0.00    +0.210 HD
ENDBRANCH  42  44
ENDBRANCH  27  42
ENDBRANCH  23  27
ENDBRANCH   1  25
BRANCH   1  46
ATOM     46  CB  TRP A   3      12.920 -10.705 -38.911  0.00  0.00    +0.057 C 
BRANCH  46  47
ATOM     47  CG  TRP A   3      11.555 -10.041 -38.893  0.00  0.00    -0.002 A 
ATOM     48  CD1 TRP A   3      10.698  -9.899 -37.833  0.00  0.00    +0.068 A 
ATOM     49  NE1 TRP A   3       9.556  -9.245 -38.235  0.00  0.00    -0.352 N 
ATOM     50  HE1 TRP A   3       8.754  -8.998 -37.621  0.00  0.00    +0.166 HD
ATOM     51  CE2 TRP A   3       9.647  -8.972 -39.576  0.00  0.00    +0.056 A 
ATOM     52  CZ2 TRP A   3       8.740  -8.333 -40.434  0.00  0.00    +0.017 A 
ATOM     53  CH2 TRP A   3       9.102  -8.194 -41.753  0.00  0.00    +0.001 A 
ATOM     54  CZ3 TRP A   3      10.340  -8.668 -42.229  0.00  0.00    +0.000 A 
ATOM     55  CE3 TRP A   3      11.237  -9.306 -41.377  0.00  0.00    +0.001 A 
ATOM     56  CD2 TRP A   3      10.891  -9.465 -40.025  0.00  0.00    +0.013 A 
ENDBRANCH  46  47
ENDBRANCH   1  46
TORSDOF 21
REMARK  Name = ../refined-set-2016/2xy9/2xy9_pocket.pdb
REMARK  304 active torsions:
REMARK  status: ('A' for Active; 'I' for Inactive)
REMARK    1  A    between atoms: _1  and  _3
REMARK    2  A    between atoms: _3  and  _4
REMARK    3  A    between atoms: _3  and  _6
REMARK    4  A    between atoms: _6  and  _7
REMARK    5  A    between atoms: _12  and  _14
REMARK    6  A    between atoms: _14  and  _15
REMARK    7  A    between atoms: _14  and  _17
REMARK    8  A    between atoms: _17  and  _18
REMARK    9  A    between atoms: _23  and  _25
REMARK   10  A    between atoms: _25  and  _26
REMARK   11  A    between atoms: _25  and  _28
REMARK   12  A    between atoms: _28  and  _29
REMARK   13  A    between atoms: _29  and  _30
REMARK   14  A    between atoms: _33  and  _35
REMARK   15  A    between atoms: _35  and  _36
REMARK   16  A    between atoms: _35  and  _38
REMARK   17  A    between atoms: _38  and  _39
REMARK   18  A    between atoms: _44  and  _45
REMARK   19  A    between atoms: _47  and  _49
REMARK   20  A    between atoms: _49  and  _50
REMARK   21  A    between atoms: _49  and  _52
REMARK   22  A    between atoms: _52  and  _53
REMARK   23  A    between atoms: _56  and  _58
REMARK   24  A    between atoms: _58  and  _59
REMARK   25  A    between atoms: _61  and  _63
REMARK   26  A    between atoms: _63  and  _64
REMARK   27  A    between atoms: _63  and  _66
REMARK   28  A    between atoms: _66  and  _67
REMARK   29  A    between atoms: _72  and  _74
REMARK   30  A    between atoms: _74  and  _75
REMARK   31  A    between atoms: _74  and  _77
REMARK   32  A    between atoms: _77  and  _78
REMARK   33  A    between atoms: _88  and  _90
REMARK   34  A    between atoms: _90  and  _91
REMARK   35  A    between atoms: _90  and  _93
REMARK   36  A    between atoms: _93  and  _94
REMARK   37  A    between atoms: _94  and  _95
REMARK   38  A    between atoms: _100  and  _102
REMARK   39  A    between atoms: _102  and  _103
REMARK   40  A    between atoms: _102  and  _105
REMARK   41  A    between atoms: _105  and  _106
REMARK   42  A    between atoms: _109  and  _111
REMARK   43  A    between atoms: _111  and  _112
REMARK   44  A    between atoms: _111  and  _114
REMARK   45  A    between atoms: _114  and  _115
REMARK   46  A    between atoms: _125  and  _127
REMARK   47  A    between atoms: _127  and  _128
REMARK   48  A    between atoms: _127  and  _130
REMARK   49  A    between atoms: _130  and  _131
REMARK   50  A    between atoms: _133  and  _135
REMARK   51  A    between atoms: _135  and  _136
REMARK   52  A    between atoms: _135  and  _138
REMARK   53  A    between atoms: _138  and  _139
REMARK   54  A    between atoms: _144  and  _146
REMARK   55  A    between atoms: _146  and  _147
REMARK   56  A    between atoms: _146  and  _149
REMARK   57  A    between atoms: _152  and  _154
REMARK   58  A    between atoms: _154  and  _155
REMARK   59  A    between atoms: _154  and  _157
REMARK   60  A    between atoms: _159  and  _161
REMARK   61  A    between atoms: _161  and  _162
REMARK   62  A    between atoms: _161  and  _164
REMARK   63  A    between atoms: _164  and  _165
REMARK   64  A    between atoms: _170  and  _172
REMARK   65  A    between atoms: _172  and  _173
REMARK   66  A    between atoms: _176  and  _178
REMARK   67  A    between atoms: _178  and  _179
REMARK   68  A    between atoms: _178  and  _181
REMARK   69  A    between atoms: _181  and  _182
REMARK   70  A    between atoms: _184  and  _186
REMARK   71  A    between atoms: _186  and  _187
REMARK   72  A    between atoms: _190  and  _192
REMARK   73  A    between atoms: _192  and  _193
REMARK   74  A    between atoms: _192  and  _195
REMARK   75  A    between atoms: _195  and  _196
REMARK   76  A    between atoms: _206  and  _208
REMARK   77  A    between atoms: _208  and  _209
REMARK   78  A    between atoms: _208  and  _211
REMARK   79  A    between atoms: _211  and  _212
REMARK   80  A    between atoms: _215  and  _217
REMARK   81  A    between atoms: _217  and  _218
REMARK   82  A    between atoms: _217  and  _220
REMARK   83  A    between atoms: _220  and  _221
REMARK   84  A    between atoms: _226  and  _227
REMARK   85  A    between atoms: _229  and  _231
REMARK   86  A    between atoms: _231  and  _232
REMARK   87  A    between atoms: _231  and  _234
REMARK   88  A    between atoms: _234  and  _235
REMARK   89  A    between atoms: _235  and  _236
REMARK   90  A    between atoms: _236  and  _237
REMARK   91  A    between atoms: _246  and  _248
REMARK   92  A    between atoms: _248  and  _249
REMARK   93  A    between atoms: _248  and  _251
REMARK   94  A    between atoms: _251  and  _252
REMARK   95  A    between atoms: _255  and  _257
REMARK   96  A    between atoms: _257  and  _258
REMARK   97  A    between atoms: _257  and  _260
REMARK   98  A    between atoms: _260  and  _261
REMARK   99  A    between atoms: _261  and  _262
REMARK  100  A    between atoms: _262  and  _263
REMARK  101  A    between atoms: _263  and  _264
REMARK  102  A    between atoms: _268  and  _270
REMARK  103  A    between atoms: _270  and  _271
REMARK  104  A    between atoms: _270  and  _273
REMARK  105  A    between atoms: _273  and  _274
REMARK  106  A    between atoms: _274  and  _275
REMARK  107  A    between atoms: _280  and  _282
REMARK  108  A    between atoms: _282  and  _283
REMARK  109  A    between atoms: _282  and  _285
REMARK  110  A    between atoms: _285  and  _286
REMARK  111  A    between atoms: _289  and  _291
REMARK  112  A    between atoms: _291  and  _292
REMARK  113  A    between atoms: _291  and  _294
REMARK  114  A    between atoms: _294  and  _295
REMARK  115  A    between atoms: _295  and  _296
REMARK  116  A    between atoms: _299  and  _301
REMARK  117  A    between atoms: _301  and  _302
REMARK  118  A    between atoms: _301  and  _304
REMARK  119  A    between atoms: _304  and  _305
REMARK  120  A    between atoms: _308  and  _310
REMARK  121  A    between atoms: _310  and  _311
REMARK  122  A    between atoms: _310  and  _313
REMARK  123  A    between atoms: _313  and  _314
REMARK  124  A    between atoms: _317  and  _319
REMARK  125  A    between atoms: _319  and  _320
REMARK  126  A    between atoms: _319  and  _322
REMARK  127  A    between atoms: _325  and  _327
REMARK  128  A    between atoms: _327  and  _328
REMARK  129  A    between atoms: _327  and  _330
REMARK  130  A    between atoms: _333  and  _335
REMARK  131  A    between atoms: _335  and  _336
REMARK  132  A    between atoms: _339  and  _341
REMARK  133  A    between atoms: _341  and  _342
REMARK  134  A    between atoms: _341  and  _344
REMARK  135  A    between atoms: _344  and  _345
REMARK  136  A    between atoms: _350  and  _352
REMARK  137  A    between atoms: _352  and  _353
REMARK  138  A    between atoms: _352  and  _355
REMARK  139  A    between atoms: _355  and  _356
REMARK  140  A    between atoms: _360  and  ZN_772
REMARK  141  A    between atoms: _361  and  _363
REMARK  142  A    between atoms: _363  and  _364
REMARK  143  A    between atoms: _363  and  _366
REMARK  144  A    between atoms: _366  and  _367
REMARK  145  A    between atoms: _367  and  _368
REMARK  146  A    between atoms: _371  and  _373
REMARK  147  A    between atoms: _373  and  _374
REMARK  148  A    between atoms: _373  and  _376
REMARK  149  A    between atoms: _376  and  _377
REMARK  150  A    between atoms: _377  and  _378
REMARK  151  A    between atoms: _380  and  _382
REMARK  152  A    between atoms: _382  and  _383
REMARK  153  A    between atoms: _382  and  _385
REMARK  154  A    between atoms: _385  and  _386
REMARK  155  A    between atoms: _390  and  ZN_772
REMARK  156  A    between atoms: _391  and  _393
REMARK  157  A    between atoms: _393  and  _394
REMARK  158  A    between atoms: _393  and  _396
REMARK  159  A    between atoms: _396  and  _397
REMARK  160  A    between atoms: _400  and  _402
REMARK  161  A    between atoms: _402  and  _403
REMARK  162  A    between atoms: _402  and  _405
REMARK  163  A    between atoms: _405  and  _406
REMARK  164  A    between atoms: _411  and  _412
REMARK  165  A    between atoms: _414  and  _416
REMARK  166  A    between atoms: _416  and  _417
REMARK  167  A    between atoms: _416  and  _419
REMARK  168  A    between atoms: _419  and  _420
REMARK  169  A    between atoms: _426  and  _428
REMARK  170  A    between atoms: _428  and  _429
REMARK  171  A    between atoms: _428  and  _431
REMARK  172  A    between atoms: _431  and  _432
REMARK  173  A    between atoms: _437  and  _438
REMARK  174  A    between atoms: _440  and  _442
REMARK  175  A    between atoms: _442  and  _443
REMARK  176  A    between atoms: _442  and  _445
REMARK  177  A    between atoms: _445  and  _446
REMARK  178  A    between atoms: _446  and  _447
REMARK  179  A    between atoms: _447  and  _448
REMARK  180  A    between atoms: _457  and  _459
REMARK  181  A    between atoms: _459  and  _460
REMARK  182  A    between atoms: _459  and  _462
REMARK  183  A    between atoms: _462  and  _463
REMARK  184  A    between atoms: _463  and  _464
REMARK  185  A    between atoms: _467  and  _469
REMARK  186  A    between atoms: _469  and  _470
REMARK  187  A    between atoms: _472  and  _474
REMARK  188  A    between atoms: _474  and  _475
REMARK  189  A    between atoms: _474  and  _477
REMARK  190  A    between atoms: _477  and  _478
REMARK  191  A    between atoms: _484  and  _485
REMARK  192  A    between atoms: _490  and  _492
REMARK  193  A    between atoms: _492  and  _493
REMARK  194  A    between atoms: _495  and  _497
REMARK  195  A    between atoms: _497  and  _498
REMARK  196  A    between atoms: _497  and  _500
REMARK  197  A    between atoms: _500  and  _501
REMARK  198  A    between atoms: _507  and  _509
REMARK  199  A    between atoms: _509  and  _510
REMARK  200  A    between atoms: _509  and  _512
REMARK  201  A    between atoms: _512  and  _513
REMARK  202  A    between atoms: _518  and  _520
REMARK  203  A    between atoms: _520  and  _521
REMARK  204  A    between atoms: _520  and  _523
REMARK  205  A    between atoms: _523  and  _524
REMARK  206  A    between atoms: _524  and  _525
REMARK  207  A    between atoms: _525  and  _526
REMARK  208  A    between atoms: _526  and  ZN_772
REMARK  209  A    between atoms: _528  and  _530
REMARK  210  A    between atoms: _530  and  _531
REMARK  211  A    between atoms: _534  and  _536
REMARK  212  A    between atoms: _536  and  _537
REMARK  213  A    between atoms: _539  and  _541
REMARK  214  A    between atoms: _541  and  _542
REMARK  215  A    between atoms: _541  and  _544
REMARK  216  A    between atoms: _544  and  _545
REMARK  217  A    between atoms: _548  and  _550
REMARK  218  A    between atoms: _550  and  _551
REMARK  219  A    between atoms: _554  and  _556
REMARK  220  A    between atoms: _556  and  _557
REMARK  221  A    between atoms: _556  and  _559
REMARK  222  A    between atoms: _559  and  _560
REMARK  223  A    between atoms: _563  and  _565
REMARK  224  A    between atoms: _565  and  _566
REMARK  225  A    between atoms: _565  and  _568
REMARK  226  A    between atoms: _568  and  _569
REMARK  227  A    between atoms: _569  and  _570
REMARK  228  A    between atoms: _570  and  _571
REMARK  229  A    between atoms: _571  and  _572
REMARK  230  A    between atoms: _576  and  _578
REMARK  231  A    between atoms: _578  and  _579
REMARK  232  A    between atoms: _578  and  _581
REMARK  233  A    between atoms: _581  and  _582
REMARK  234  A    between atoms: _588  and  _590
REMARK  235  A    between atoms: _590  and  _591
REMARK  236  A    between atoms: _590  and  _593
REMARK  237  A    between atoms: _593  and  _594
REMARK  238  A    between atoms: _600  and  _602
REMARK  239  A    between atoms: _602  and  _603
REMARK  240  A    between atoms: _602  and  _605
REMARK  241  A    between atoms: _605  and  _606
REMARK  242  A    between atoms: _608  and  _610
REMARK  243  A    between atoms: _610  and  _611
REMARK  244  A    between atoms: _610  and  _613
REMARK  245  A    between atoms: _616  and  _618
REMARK  246  A    between atoms: _618  and  _619
REMARK  247  A    between atoms: _618  and  _621
REMARK  248  A    between atoms: _621  and  _622
REMARK  249  A    between atoms: _622  and  _623
REMARK  250  A    between atoms: _623  and  _624
REMARK  251  A    between atoms: _624  and  _625
REMARK  252  A    between atoms: _629  and  _631
REMARK  253  A    between atoms: _631  and  _632
REMARK  254  A    between atoms: _631  and  _634
REMARK  255  A    between atoms: _634  and  _635
REMARK  256  A    between atoms: _641  and  _643
REMARK  257  A    between atoms: _643  and  _644
REMARK  258  A    between atoms: _643  and  _646
REMARK  259  A    between atoms: _646  and  _647
REMARK  260  A    between atoms: _652  and  _654
REMARK  261  A    between atoms: _654  and  _655
REMARK  262  A    between atoms: _654  and  _657
REMARK  263  A    between atoms: _657  and  _658
REMARK  264  A    between atoms: _660  and  _662
REMARK  265  A    between atoms: _662  and  _663
REMARK  266  A    between atoms: _662  and  _665
REMARK  267  A    between atoms: _665  and  _666
REMARK  268  A    between atoms: _668  and  _670
REMARK  269  A    between atoms: _670  and  _671
REMARK  270  A    between atoms: _670  and  _673
REMARK  271  A    between atoms: _677  and  _678
REMARK  272  A    between atoms: _683  and  _685
REMARK  273  A    between atoms: _685  and  _686
REMARK  274  A    between atoms: _685  and  _688
REMARK  275  A    between atoms: _688  and  _689
REMARK  276  A    between atoms: _694  and  _695
REMARK  277  A    between atoms: _697  and  _699
REMARK  278  A    between atoms: _699  and  _700
REMARK  279  A    between atoms: _699  and  _702
REMARK  280  A    between atoms: _702  and  _703
REMARK  281  A    between atoms: _703  and  _704
REMARK  282  A    between atoms: _704  and  _705
REMARK  283  A    between atoms: _714  and  _716
REMARK  284  A    between atoms: _716  and  _717
REMARK  285  A    between atoms: _716  and  _719
REMARK  286  A    between atoms: _719  and  _720
REMARK  287  A    between atoms: _725  and  _726
REMARK  288  A    between atoms: _728  and  _730
REMARK  289  A    between atoms: _730  and  _731
REMARK  290  A    between atoms: _730  and  _733
REMARK  291  A    between atoms: _733  and  _734
REMARK  292  A    between atoms: _740  and  _742
REMARK  293  A    between atoms: _742  and  _743
REMARK  294  A    between atoms: _742  and  _745
REMARK  295  A    between atoms: _745  and  _746
REMARK  296  A    between atoms: _748  and  _750
REMARK  297  A    between atoms: _750  and  _751
REMARK  298  A    between atoms: _750  and  _753
REMARK  299  A    between atoms: _753  and  _754
REMARK  300  A    between atoms: _760  and  _762
REMARK  301  A    between atoms: _762  and  _763
REMARK  302  A    between atoms: _762  and  _765
REMARK  303  A    between atoms: _765  and  _766
REMARK  304  A    between atoms: _766  and  _767
REMARK                            x       y       z     vdW  Elec       q    Type
REMARK                         _______ _______ _______ _____ _____    ______ ____
ROOT
ATOM      1  CA  SER A   5      16.770  -5.333 -16.740  0.00  0.00    +0.178 C 
ENDROOT
BRANCH   1   3
ATOM      2  C   ALA A   4      16.098  -7.150 -18.230  0.00  0.00    +0.241 C 
ATOM      3  N   SER A   5      16.865  -6.707 -17.239  0.00  0.00    -0.295 N 
ATOM      4  H   SER A   5      17.553  -7.355 -16.805  0.00  0.00    +0.150 HD
ATOM      5  O   ALA A   4      15.185  -6.490 -18.719  0.00  0.00    -0.273 OA
BRANCH   2   6
ATOM      6  CA  ALA A   4      16.397  -8.562 -18.729  0.00  0.00    +0.149 C 
ATOM      7  CB  ALA A   4      17.317  -8.515 -19.945  0.00  0.00    +0.031 C 
BRANCH   6  10
ATOM      8  C   HIS A   3      14.206  -9.486 -18.157  0.00  0.00    +0.241 C 
ATOM      9  O   HIS A   3      14.217  -8.995 -17.029  0.00  0.00    -0.273 OA
ATOM     10  N   ALA A   4      15.178  -9.298 -19.046  0.00  0.00    -0.297 N 
ATOM     11  H   ALA A   4      15.064  -9.690 -20.002  0.00  0.00    +0.150 HD
BRANCH   8  12
ATOM     12  CA  HIS A   3      13.063 -10.389 -18.601  0.00  0.00    +0.155 C 
BRANCH  12  15
ATOM     13  C   CYS A   2      13.904 -12.229 -17.229  0.00  0.00    +0.242 C 
ATOM     14  O   CYS A   2      15.071 -11.979 -17.527  0.00  0.00    -0.273 OA
ATOM     15  N   HIS A   3      12.872 -11.496 -17.652  0.00  0.00    -0.297 N 
ATOM     16  H   HIS A   3      11.916 -11.712 -17.304  0.00  0.00    +0.150 HD
BRANCH  13  17
ATOM     17  CA  CYS A   2      13.593 -13.429 -16.337  0.00  0.00    +0.160 C 
BRANCH  17  20
ATOM     18  C   VAL A   1      12.537 -12.469 -14.356  0.00  0.00    +0.238 C 
ATOM     19  O   VAL A   1      13.551 -11.827 -14.060  0.00  0.00    -0.274 OA
ATOM     20  N   CYS A   2      12.453 -13.236 -15.441  0.00  0.00    -0.297 N 
ATOM     21  H   CYS A   2      11.553 -13.710 -15.657  0.00  0.00    +0.150 HD
BRANCH  18  22
ATOM     22  CA  VAL A   1      11.308 -12.448 -13.449  0.00  0.00    +0.145 C 
BRANCH  22  23
ATOM     23  CB  VAL A   1      10.897 -10.981 -13.118  0.00  0.00    +0.025 C 
ATOM     24  CG2 VAL A   1       9.619 -10.953 -12.295  0.00  0.00    +0.002 C 
ATOM     25  CG1 VAL A   1      10.734 -10.141 -14.397  0.00  0.00    +0.002 C 
ENDBRANCH  22  23
BRANCH  22  26
ATOM     26  N   VAL A   1      11.660 -13.206 -12.251  0.00  0.00    -0.238 NA
ATOM     27  H   VAL A   1      12.057 -12.699 -11.434  0.00  0.00    +0.142 HD
ENDBRANCH  22  26
ENDBRANCH  18  22
ENDBRANCH  17  20
BRANCH  17  28
ATOM     28  CB  CYS A   2      13.423 -14.692 -17.186  0.00  0.00    +0.098 C 
ATOM     29  SG  CYS A   2      14.047 -16.179 -16.371  0.00  0.00    -0.080 S 
ENDBRANCH  17  28
ENDBRANCH  13  17
ENDBRANCH  12  15
BRANCH  12  30
ATOM     30  CB  HIS A   3      11.777  -9.585 -18.803  0.00  0.00    +0.076 C 
BRANCH  30  31
ATOM     31  CG  HIS A   3      11.786  -8.741 -20.039  0.00  0.00    +0.082 A 
ATOM     32  CD2 HIS A   3      12.322  -7.521 -20.283  0.00  0.00    +0.115 A 
ATOM     33  NE2 HIS A   3      12.047  -7.211 -21.593  0.00  0.00    -0.221 NA
ATOM     34  CE1 HIS A   3      11.370  -8.209 -22.136  0.00  0.00    +0.199 A 
ATOM     35  ND1 HIS A   3      11.201  -9.147 -21.221  0.00  0.00    -0.227 NA
ENDBRANCH  30  31
ENDBRANCH  12  30
ENDBRANCH   8  12
ENDBRANCH   6  10
ENDBRANCH   2   6
ENDBRANCH   1   3
BRANCH   1  36
ATOM     36  C   SER A   5      18.020  -4.939 -15.965  0.00  0.00    +0.243 C 
ATOM     37  O   SER A   5      18.723  -5.799 -15.415  0.00  0.00    -0.273 OA
ATOM     38  N   ALA A   6      18.284  -3.634 -15.927  0.00  0.00    -0.297 N 
ATOM     39  H   ALA A   6      17.621  -2.976 -16.385  0.00  0.00    +0.150 HD
BRANCH  38  40
ATOM     40  CA  ALA A   6      19.467  -3.091 -15.268  0.00  0.00    +0.149 C 
ATOM     41  CB  ALA A   6      20.313  -2.298 -16.249  0.00  0.00    +0.031 C 
BRANCH  40  42
ATOM     42  C   ALA A   6      19.035  -2.218 -14.103  0.00  0.00    +0.241 C 
ATOM     43  N   TRP A   7      19.711  -2.384 -12.974  0.00  0.00    -0.297 N 
ATOM     44  H   TRP A   7      20.621  -2.886 -13.001  0.00  0.00    +0.150 HD
ATOM     45  O   ALA A   6      18.119  -1.412 -14.231  0.00  0.00    -0.273 OA
BRANCH  43  46
ATOM     46  CA  TRP A   7      19.219  -1.886 -11.700  0.00  0.00    +0.153 C 
BRANCH  46  47
ATOM     47  C   TRP A   7      20.184  -0.905 -11.059  0.00  0.00    +0.241 C 
ATOM     48  O   TRP A   7      21.330  -1.252 -10.759  0.00  0.00    -0.273 OA
ATOM     49  N   ASP A   8      19.703   0.322 -10.866  0.00  0.00    -0.298 N 
ATOM     50  H   ASP A   8      18.778   0.559 -11.278  0.00  0.00    +0.150 HD
BRANCH  49  51
ATOM     51  CA  ASP A   8      20.407   1.351 -10.106  0.00  0.00    +0.148 C 
BRANCH  51  52
ATOM     52  C   ASP A   8      19.833   1.344  -8.693  0.00  0.00    +0.227 C 
ATOM     53  O   ASP A   8      18.620   1.463  -8.508  0.00  0.00    -0.286 OA
ENDBRANCH  51  52
BRANCH  51  54
ATOM     54  CB  ASP A   8      20.196   2.720 -10.765  0.00  0.00    +0.142 C 
BRANCH  54  55
ATOM     55  CG  ASP A   8      21.150   3.802 -10.242  0.00  0.00    +0.367 C 
ATOM     56  OD2 ASP A   8      21.733   3.644  -9.147  0.00  0.00    -0.246 OA
ATOM     57  OD1 ASP A   8      21.308   4.830 -10.946  0.00  0.00    -0.246 OA
ENDBRANCH  54  55
ENDBRANCH  51  54
ENDBRANCH  49  51
ENDBRANCH  46  47
BRANCH  46  58
ATOM     58  CB  TRP A   7      18.953  -3.062 -10.750  0.00  0.00    +0.057 C 
BRANCH  58  59
ATOM     59  CG  TRP A   7      17.804  -3.931 -11.166  0.00  0.00    -0.002 A 
ATOM     60  CD2 TRP A   7      16.559  -4.088 -10.482  0.00  0.00    +0.013 A 
ATOM     61  CE3 TRP A   7      16.018  -3.544  -9.307  0.00  0.00    +0.001 A 
ATOM     62  CZ3 TRP A   7      14.740  -3.921  -8.924  0.00  0.00    +0.000 A 
ATOM     63  CH2 TRP A   7      13.991  -4.836  -9.688  0.00  0.00    +0.001 A 
ATOM     64  CZ2 TRP A   7      14.494  -5.387 -10.841  0.00  0.00    +0.017 A 
ATOM     65  CE2 TRP A   7      15.786  -5.003 -11.228  0.00  0.00    +0.056 A 
ATOM     66  NE1 TRP A   7      16.533  -5.384 -12.309  0.00  0.00    -0.352 N 
ATOM     67  HE1 TRP A   7      16.233  -6.054 -13.046  0.00  0.00    +0.166 HD
ATOM     68  CD1 TRP A   7      17.742  -4.738 -12.263  0.00  0.00    +0.068 A 
ENDBRANCH  58  59
ENDBRANCH  46  58
ENDBRANCH  43  46
ENDBRANCH  40  42
ENDBRANCH  38  40
ENDBRANCH   1  36
BRANCH   1  69
ATOM     69  CB  SER A   5      15.521  -5.146 -15.872  0.00  0.00    +0.166 C 
BRANCH  69  70
ATOM     70  OG  SER A   5      15.485  -6.090 -14.821  0.00  0.00    -0.380 OA
ATOM     71  H   SER A   5      14.670  -5.946 -14.278  0.00  0.00    +0.211 HD
ENDBRANCH  69  70
ENDBRANCH   1  69
TORSDOF 26
REMARK  Name = ../refined-set-2016/2xy9/2xy9_pocket.pdb
REMARK  304 active torsions:
REMARK  status: ('A' for Active; 'I' for Inactive)
REMARK    1  A    between atoms: _1  and  _3
REMARK    2  A    between atoms: _3  and  _4
REMARK    3  A    between atoms: _3  and  _6
REMARK    4  A    between atoms: _6  and  _7
REMARK    5  A    between atoms: _12  and  _14
REMARK    6  A    between atoms: _14  and  _15
REMARK    7  A    between atoms: _14  and  _17
REMARK    8  A    between atoms: _17  and  _18
REMARK    9  A    between atoms: _23  and  _25
REMARK   10  A    between atoms: _25  and  _26
REMARK   11  A    between atoms: _25  and  _28
REMARK   12  A    between atoms: _28  and  _29
REMARK   13  A    between atoms: _29  and  _30
REMARK   14  A    between atoms: _33  and  _35
REMARK   15  A    between atoms: _35  and  _36
REMARK   16  A    between atoms: _35  and  _38
REMARK   17  A    between atoms: _38  and  _39
REMARK   18  A    between atoms: _44  and  _45
REMARK   19  A    between atoms: _47  and  _49
REMARK   20  A    between atoms: _49  and  _50
REMARK   21  A    between atoms: _49  and  _52
REMARK   22  A    between atoms: _52  and  _53
REMARK   23  A    between atoms: _56  and  _58
REMARK   24  A    between atoms: _58  and  _59
REMARK   25  A    between atoms: _61  and  _63
REMARK   26  A    between atoms: _63  and  _64
REMARK   27  A    between atoms: _63  and  _66
REMARK   28  A    between atoms: _66  and  _67
REMARK   29  A    between atoms: _72  and  _74
REMARK   30  A    between atoms: _74  and  _75
REMARK   31  A    between atoms: _74  and  _77
REMARK   32  A    between atoms: _77  and  _78
REMARK   33  A    between atoms: _88  and  _90
REMARK   34  A    between atoms: _90  and  _91
REMARK   35  A    between atoms: _90  and  _93
REMARK   36  A    between atoms: _93  and  _94
REMARK   37  A    between atoms: _94  and  _95
REMARK   38  A    between atoms: _100  and  _102
REMARK   39  A    between atoms: _102  and  _103
REMARK   40  A    between atoms: _102  and  _105
REMARK   41  A    between atoms: _105  and  _106
REMARK   42  A    between atoms: _109  and  _111
REMARK   43  A    between atoms: _111  and  _112
REMARK   44  A    between atoms: _111  and  _114
REMARK   45  A    between atoms: _114  and  _115
REMARK   46  A    between atoms: _125  and  _127
REMARK   47  A    between atoms: _127  and  _128
REMARK   48  A    between atoms: _127  and  _130
REMARK   49  A    between atoms: _130  and  _131
REMARK   50  A    between atoms: _133  and  _135
REMARK   51  A    between atoms: _135  and  _136
REMARK   52  A    between atoms: _135  and  _138
REMARK   53  A    between atoms: _138  and  _139
REMARK   54  A    between atoms: _144  and  _146
REMARK   55  A    between atoms: _146  and  _147
REMARK   56  A    between atoms: _146  and  _149
REMARK   57  A    between atoms: _152  and  _154
REMARK   58  A    between atoms: _154  and  _155
REMARK   59  A    between atoms: _154  and  _157
REMARK   60  A    between atoms: _159  and  _161
REMARK   61  A    between atoms: _161  and  _162
REMARK   62  A    between atoms: _161  and  _164
REMARK   63  A    between atoms: _164  and  _165
REMARK   64  A    between atoms: _170  and  _172
REMARK   65  A    between atoms: _172  and  _173
REMARK   66  A    between atoms: _176  and  _178
REMARK   67  A    between atoms: _178  and  _179
REMARK   68  A    between atoms: _178  and  _181
REMARK   69  A    between atoms: _181  and  _182
REMARK   70  A    between atoms: _184  and  _186
REMARK   71  A    between atoms: _186  and  _187
REMARK   72  A    between atoms: _190  and  _192
REMARK   73  A    between atoms: _192  and  _193
REMARK   74  A    between atoms: _192  and  _195
REMARK   75  A    between atoms: _195  and  _196
REMARK   76  A    between atoms: _206  and  _208
REMARK   77  A    between atoms: _208  and  _209
REMARK   78  A    between atoms: _208  and  _211
REMARK   79  A    between atoms: _211  and  _212
REMARK   80  A    between atoms: _215  and  _217
REMARK   81  A    between atoms: _217  and  _218
REMARK   82  A    between atoms: _217  and  _220
REMARK   83  A    between atoms: _220  and  _221
REMARK   84  A    between atoms: _226  and  _227
REMARK   85  A    between atoms: _229  and  _231
REMARK   86  A    between atoms: _231  and  _232
REMARK   87  A    between atoms: _231  and  _234
REMARK   88  A    between atoms: _234  and  _235
REMARK   89  A    between atoms: _235  and  _236
REMARK   90  A    between atoms: _236  and  _237
REMARK   91  A    between atoms: _246  and  _248
REMARK   92  A    between atoms: _248  and  _249
REMARK   93  A    between atoms: _248  and  _251
REMARK   94  A    between atoms: _251  and  _252
REMARK   95  A    between atoms: _255  and  _257
REMARK   96  A    between atoms: _257  and  _258
REMARK   97  A    between atoms: _257  and  _260
REMARK   98  A    between atoms: _260  and  _261
REMARK   99  A    between atoms: _261  and  _262
REMARK  100  A    between atoms: _262  and  _263
REMARK  101  A    between atoms: _263  and  _264
REMARK  102  A    between atoms: _268  and  _270
REMARK  103  A    between atoms: _270  and  _271
REMARK  104  A    between atoms: _270  and  _273
REMARK  105  A    between atoms: _273  and  _274
REMARK  106  A    between atoms: _274  and  _275
REMARK  107  A    between atoms: _280  and  _282
REMARK  108  A    between atoms: _282  and  _283
REMARK  109  A    between atoms: _282  and  _285
REMARK  110  A    between atoms: _285  and  _286
REMARK  111  A    between atoms: _289  and  _291
REMARK  112  A    between atoms: _291  and  _292
REMARK  113  A    between atoms: _291  and  _294
REMARK  114  A    between atoms: _294  and  _295
REMARK  115  A    between atoms: _295  and  _296
REMARK  116  A    between atoms: _299  and  _301
REMARK  117  A    between atoms: _301  and  _302
REMARK  118  A    between atoms: _301  and  _304
REMARK  119  A    between atoms: _304  and  _305
REMARK  120  A    between atoms: _308  and  _310
REMARK  121  A    between atoms: _310  and  _311
REMARK  122  A    between atoms: _310  and  _313
REMARK  123  A    between atoms: _313  and  _314
REMARK  124  A    between atoms: _317  and  _319
REMARK  125  A    between atoms: _319  and  _320
REMARK  126  A    between atoms: _319  and  _322
REMARK  127  A    between atoms: _325  and  _327
REMARK  128  A    between atoms: _327  and  _328
REMARK  129  A    between atoms: _327  and  _330
REMARK  130  A    between atoms: _333  and  _335
REMARK  131  A    between atoms: _335  and  _336
REMARK  132  A    between atoms: _339  and  _341
REMARK  133  A    between atoms: _341  and  _342
REMARK  134  A    between atoms: _341  and  _344
REMARK  135  A    between atoms: _344  and  _345
REMARK  136  A    between atoms: _350  and  _352
REMARK  137  A    between atoms: _352  and  _353
REMARK  138  A    between atoms: _352  and  _355
REMARK  139  A    between atoms: _355  and  _356
REMARK  140  A    between atoms: _360  and  ZN_772
REMARK  141  A    between atoms: _361  and  _363
REMARK  142  A    between atoms: _363  and  _364
REMARK  143  A    between atoms: _363  and  _366
REMARK  144  A    between atoms: _366  and  _367
REMARK  145  A    between atoms: _367  and  _368
REMARK  146  A    between atoms: _371  and  _373
REMARK  147  A    between atoms: _373  and  _374
REMARK  148  A    between atoms: _373  and  _376
REMARK  149  A    between atoms: _376  and  _377
REMARK  150  A    between atoms: _377  and  _378
REMARK  151  A    between atoms: _380  and  _382
REMARK  152  A    between atoms: _382  and  _383
REMARK  153  A    between atoms: _382  and  _385
REMARK  154  A    between atoms: _385  and  _386
REMARK  155  A    between atoms: _390  and  ZN_772
REMARK  156  A    between atoms: _391  and  _393
REMARK  157  A    between atoms: _393  and  _394
REMARK  158  A    between atoms: _393  and  _396
REMARK  159  A    between atoms: _396  and  _397
REMARK  160  A    between atoms: _400  and  _402
REMARK  161  A    between atoms: _402  and  _403
REMARK  162  A    between atoms: _402  and  _405
REMARK  163  A    between atoms: _405  and  _406
REMARK  164  A    between atoms: _411  and  _412
REMARK  165  A    between atoms: _414  and  _416
REMARK  166  A    between atoms: _416  and  _417
REMARK  167  A    between atoms: _416  and  _419
REMARK  168  A    between atoms: _419  and  _420
REMARK  169  A    between atoms: _426  and  _428
REMARK  170  A    between atoms: _428  and  _429
REMARK  171  A    between atoms: _428  and  _431
REMARK  172  A    between atoms: _431  and  _432
REMARK  173  A    between atoms: _437  and  _438
REMARK  174  A    between atoms: _440  and  _442
REMARK  175  A    between atoms: _442  and  _443
REMARK  176  A    between atoms: _442  and  _445
REMARK  177  A    between atoms: _445  and  _446
REMARK  178  A    between atoms: _446  and  _447
REMARK  179  A    between atoms: _447  and  _448
REMARK  180  A    between atoms: _457  and  _459
REMARK  181  A    between atoms: _459  and  _460
REMARK  182  A    between atoms: _459  and  _462
REMARK  183  A    between atoms: _462  and  _463
REMARK  184  A    between atoms: _463  and  _464
REMARK  185  A    between atoms: _467  and  _469
REMARK  186  A    between atoms: _469  and  _470
REMARK  187  A    between atoms: _472  and  _474
REMARK  188  A    between atoms: _474  and  _475
REMARK  189  A    between atoms: _474  and  _477
REMARK  190  A    between atoms: _477  and  _478
REMARK  191  A    between atoms: _484  and  _485
REMARK  192  A    between atoms: _490  and  _492
REMARK  193  A    between atoms: _492  and  _493
REMARK  194  A    between atoms: _495  and  _497
REMARK  195  A    between atoms: _497  and  _498
REMARK  196  A    between atoms: _497  and  _500
REMARK  197  A    between atoms: _500  and  _501
REMARK  198  A    between atoms: _507  and  _509
REMARK  199  A    between atoms: _509  and  _510
REMARK  200  A    between atoms: _509  and  _512
REMARK  201  A    between atoms: _512  and  _513
REMARK  202  A    between atoms: _518  and  _520
REMARK  203  A    between atoms: _520  and  _521
REMARK  204  A    between atoms: _520  and  _523
REMARK  205  A    between atoms: _523  and  _524
REMARK  206  A    between atoms: _524  and  _525
REMARK  207  A    between atoms: _525  and  _526
REMARK  208  A    between atoms: _526  and  ZN_772
REMARK  209  A    between atoms: _528  and  _530
REMARK  210  A    between atoms: _530  and  _531
REMARK  211  A    between atoms: _534  and  _536
REMARK  212  A    between atoms: _536  and  _537
REMARK  213  A    between atoms: _539  and  _541
REMARK  214  A    between atoms: _541  and  _542
REMARK  215  A    between atoms: _541  and  _544
REMARK  216  A    between atoms: _544  and  _545
REMARK  217  A    between atoms: _548  and  _550
REMARK  218  A    between atoms: _550  and  _551
REMARK  219  A    between atoms: _554  and  _556
REMARK  220  A    between atoms: _556  and  _557
REMARK  221  A    between atoms: _556  and  _559
REMARK  222  A    between atoms: _559  and  _560
REMARK  223  A    between atoms: _563  and  _565
REMARK  224  A    between atoms: _565  and  _566
REMARK  225  A    between atoms: _565  and  _568
REMARK  226  A    between atoms: _568  and  _569
REMARK  227  A    between atoms: _569  and  _570
REMARK  228  A    between atoms: _570  and  _571
REMARK  229  A    between atoms: _571  and  _572
REMARK  230  A    between atoms: _576  and  _578
REMARK  231  A    between atoms: _578  and  _579
REMARK  232  A    between atoms: _578  and  _581
REMARK  233  A    between atoms: _581  and  _582
REMARK  234  A    between atoms: _588  and  _590
REMARK  235  A    between atoms: _590  and  _591
REMARK  236  A    between atoms: _590  and  _593
REMARK  237  A    between atoms: _593  and  _594
REMARK  238  A    between atoms: _600  and  _602
REMARK  239  A    between atoms: _602  and  _603
REMARK  240  A    between atoms: _602  and  _605
REMARK  241  A    between atoms: _605  and  _606
REMARK  242  A    between atoms: _608  and  _610
REMARK  243  A    between atoms: _610  and  _611
REMARK  244  A    between atoms: _610  and  _613
REMARK  245  A    between atoms: _616  and  _618
REMARK  246  A    between atoms: _618  and  _619
REMARK  247  A    between atoms: _618  and  _621
REMARK  248  A    between atoms: _621  and  _622
REMARK  249  A    between atoms: _622  and  _623
REMARK  250  A    between atoms: _623  and  _624
REMARK  251  A    between atoms: _624  and  _625
REMARK  252  A    between atoms: _629  and  _631
REMARK  253  A    between atoms: _631  and  _632
REMARK  254  A    between atoms: _631  and  _634
REMARK  255  A    between atoms: _634  and  _635
REMARK  256  A    between atoms: _641  and  _643
REMARK  257  A    between atoms: _643  and  _644
REMARK  258  A    between atoms: _643  and  _646
REMARK  259  A    between atoms: _646  and  _647
REMARK  260  A    between atoms: _652  and  _654
REMARK  261  A    between atoms: _654  and  _655
REMARK  262  A    between atoms: _654  and  _657
REMARK  263  A    between atoms: _657  and  _658
REMARK  264  A    between atoms: _660  and  _662
REMARK  265  A    between atoms: _662  and  _663
REMARK  266  A    between atoms: _662  and  _665
REMARK  267  A    between atoms: _665  and  _666
REMARK  268  A    between atoms: _668  and  _670
REMARK  269  A    between atoms: _670  and  _671
REMARK  270  A    between atoms: _670  and  _673
REMARK  271  A    between atoms: _677  and  _678
REMARK  272  A    between atoms: _683  and  _685
REMARK  273  A    between atoms: _685  and  _686
REMARK  274  A    between atoms: _685  and  _688
REMARK  275  A    between atoms: _688  and  _689
REMARK  276  A    between atoms: _694  and  _695
REMARK  277  A    between atoms: _697  and  _699
REMARK  278  A    between atoms: _699  and  _700
REMARK  279  A    between atoms: _699  and  _702
REMARK  280  A    between atoms: _702  and  _703
REMARK  281  A    between atoms: _703  and  _704
REMARK  282  A    between atoms: _704  and  _705
REMARK  283  A    between atoms: _714  and  _716
REMARK  284  A    between atoms: _716  and  _717
REMARK  285  A    between atoms: _716  and  _719
REMARK  286  A    between atoms: _719  and  _720
REMARK  287  A    between atoms: _725  and  _726
REMARK  288  A    between atoms: _728  and  _730
REMARK  289  A    between atoms: _730  and  _731
REMARK  290  A    between atoms: _730  and  _733
REMARK  291  A    between atoms: _733  and  _734
REMARK  292  A    between atoms: _740  and  _742
REMARK  293  A    between atoms: _742  and  _743
REMARK  294  A    between atoms: _742  and  _745
REMARK  295  A    between atoms: _745  and  _746
REMARK  296  A    between atoms: _748  and  _750
REMARK  297  A    between atoms: _750  and  _751
REMARK  298  A    between atoms: _750  and  _753
REMARK  299  A    between atoms: _753  and  _754
REMARK  300  A    between atoms: _760  and  _762
REMARK  301  A    between atoms: _762  and  _763
REMARK  302  A    between atoms: _762  and  _765
REMARK  303  A    between atoms: _765  and  _766
REMARK  304  A    between atoms: _766  and  _767
REMARK                            x       y       z     vdW  Elec       q    Type
REMARK                         _______ _______ _______ _____ _____    ______ ____
ROOT
ATOM      1  CG  TYR A   1      18.492   5.443  -7.085  0.00  0.00    -0.020 A 
ATOM      2  CD2 TYR A   1      17.704   4.355  -7.455  0.00  0.00    -0.001 A 
ATOM      3  CE2 TYR A   1      17.018   4.343  -8.666  0.00  0.00    +0.036 A 
ATOM      4  CZ  TYR A   1      17.118   5.429  -9.519  0.00  0.00    +0.134 A 
ATOM      5  CE1 TYR A   1      17.897   6.518  -9.180  0.00  0.00    +0.036 A 
ATOM      6  CD1 TYR A   1      18.587   6.519  -7.969  0.00  0.00    -0.001 A 
ENDROOT
BRANCH   4   7
ATOM      7  OH  TYR A   1      16.432   5.432 -10.714  0.00  0.00    -0.506 OA
ATOM      8  HH  TYR A   1      16.729   4.666 -11.266  0.00  0.00    +0.292 HD
ENDBRANCH   4   7
BRANCH   1   9
ATOM      9  CB  TYR A   1      19.264   5.440  -5.783  0.00  0.00    +0.051 C 
BRANCH   9  10
ATOM     10  CA  TYR A   1      20.709   4.943  -5.967  0.00  0.00    +0.137 C 
BRANCH  10  11
ATOM     11  N   TYR A   1      20.721   3.540  -6.395  0.00  0.00    -0.239 NA
ATOM     12  H   TYR A   1      21.030   3.324  -7.364  0.00  0.00    +0.142 HD
ENDBRANCH  10  11
BRANCH  10  13
ATOM     13  C   TYR A   1      21.584   5.242  -4.747  0.00  0.00    +0.224 C 
ATOM     14  O   TYR A   1      21.186   5.986  -3.845  0.00  0.00    -0.287 OA
ENDBRANCH  10  13
ENDBRANCH   9  10
ENDBRANCH   1   9
TORSDOF 5
REMARK  Name = ../refined-set-2016/2xy9/2xy9_pocket.pdb
REMARK  304 active torsions:
REMARK  status: ('A' for Active; 'I' for Inactive)
REMARK    1  A    between atoms: _1  and  _3
REMARK    2  A    between atoms: _3  and  _4
REMARK    3  A    between atoms: _3  and  _6
REMARK    4  A    between atoms: _6  and  _7
REMARK    5  A    between atoms: _12  and  _14
REMARK    6  A    between atoms: _14  and  _15
REMARK    7  A    between atoms: _14  and  _17
REMARK    8  A    between atoms: _17  and  _18
REMARK    9  A    between atoms: _23  and  _25
REMARK   10  A    between atoms: _25  and  _26
REMARK   11  A    between atoms: _25  and  _28
REMARK   12  A    between atoms: _28  and  _29
REMARK   13  A    between atoms: _29  and  _30
REMARK   14  A    between atoms: _33  and  _35
REMARK   15  A    between atoms: _35  and  _36
REMARK   16  A    between atoms: _35  and  _38
REMARK   17  A    between atoms: _38  and  _39
REMARK   18  A    between atoms: _44  and  _45
REMARK   19  A    between atoms: _47  and  _49
REMARK   20  A    between atoms: _49  and  _50
REMARK   21  A    between atoms: _49  and  _52
REMARK   22  A    between atoms: _52  and  _53
REMARK   23  A    between atoms: _56  and  _58
REMARK   24  A    between atoms: _58  and  _59
REMARK   25  A    between atoms: _61  and  _63
REMARK   26  A    between atoms: _63  and  _64
REMARK   27  A    between atoms: _63  and  _66
REMARK   28  A    between atoms: _66  and  _67
REMARK   29  A    between atoms: _72  and  _74
REMARK   30  A    between atoms: _74  and  _75
REMARK   31  A    between atoms: _74  and  _77
REMARK   32  A    between atoms: _77  and  _78
REMARK   33  A    between atoms: _88  and  _90
REMARK   34  A    between atoms: _90  and  _91
REMARK   35  A    between atoms: _90  and  _93
REMARK   36  A    between atoms: _93  and  _94
REMARK   37  A    between atoms: _94  and  _95
REMARK   38  A    between atoms: _100  and  _102
REMARK   39  A    between atoms: _102  and  _103
REMARK   40  A    between atoms: _102  and  _105
REMARK   41  A    between atoms: _105  and  _106
REMARK   42  A    between atoms: _109  and  _111
REMARK   43  A    between atoms: _111  and  _112
REMARK   44  A    between atoms: _111  and  _114
REMARK   45  A    between atoms: _114  and  _115
REMARK   46  A    between atoms: _125  and  _127
REMARK   47  A    between atoms: _127  and  _128
REMARK   48  A    between atoms: _127  and  _130
REMARK   49  A    between atoms: _130  and  _131
REMARK   50  A    between atoms: _133  and  _135
REMARK   51  A    between atoms: _135  and  _136
REMARK   52  A    between atoms: _135  and  _138
REMARK   53  A    between atoms: _138  and  _139
REMARK   54  A    between atoms: _144  and  _146
REMARK   55  A    between atoms: _146  and  _147
REMARK   56  A    between atoms: _146  and  _149
REMARK   57  A    between atoms: _152  and  _154
REMARK   58  A    between atoms: _154  and  _155
REMARK   59  A    between atoms: _154  and  _157
REMARK   60  A    between atoms: _159  and  _161
REMARK   61  A    between atoms: _161  and  _162
REMARK   62  A    between atoms: _161  and  _164
REMARK   63  A    between atoms: _164  and  _165
REMARK   64  A    between atoms: _170  and  _172
REMARK   65  A    between atoms: _172  and  _173
REMARK   66  A    between atoms: _176  and  _178
REMARK   67  A    between atoms: _178  and  _179
REMARK   68  A    between atoms: _178  and  _181
REMARK   69  A    between atoms: _181  and  _182
REMARK   70  A    between atoms: _184  and  _186
REMARK   71  A    between atoms: _186  and  _187
REMARK   72  A    between atoms: _190  and  _192
REMARK   73  A    between atoms: _192  and  _193
REMARK   74  A    between atoms: _192  and  _195
REMARK   75  A    between atoms: _195  and  _196
REMARK   76  A    between atoms: _206  and  _208
REMARK   77  A    between atoms: _208  and  _209
REMARK   78  A    between atoms: _208  and  _211
REMARK   79  A    between atoms: _211  and  _212
REMARK   80  A    between atoms: _215  and  _217
REMARK   81  A    between atoms: _217  and  _218
REMARK   82  A    between atoms: _217  and  _220
REMARK   83  A    between atoms: _220  and  _221
REMARK   84  A    between atoms: _226  and  _227
REMARK   85  A    between atoms: _229  and  _231
REMARK   86  A    between atoms: _231  and  _232
REMARK   87  A    between atoms: _231  and  _234
REMARK   88  A    between atoms: _234  and  _235
REMARK   89  A    between atoms: _235  and  _236
REMARK   90  A    between atoms: _236  and  _237
REMARK   91  A    between atoms: _246  and  _248
REMARK   92  A    between atoms: _248  and  _249
REMARK   93  A    between atoms: _248  and  _251
REMARK   94  A    between atoms: _251  and  _252
REMARK   95  A    between atoms: _255  and  _257
REMARK   96  A    between atoms: _257  and  _258
REMARK   97  A    between atoms: _257  and  _260
REMARK   98  A    between atoms: _260  and  _261
REMARK   99  A    between atoms: _261  and  _262
REMARK  100  A    between atoms: _262  and  _263
REMARK  101  A    between atoms: _263  and  _264
REMARK  102  A    between atoms: _268  and  _270
REMARK  103  A    between atoms: _270  and  _271
REMARK  104  A    between atoms: _270  and  _273
REMARK  105  A    between atoms: _273  and  _274
REMARK  106  A    between atoms: _274  and  _275
REMARK  107  A    between atoms: _280  and  _282
REMARK  108  A    between atoms: _282  and  _283
REMARK  109  A    between atoms: _282  and  _285
REMARK  110  A    between atoms: _285  and  _286
REMARK  111  A    between atoms: _289  and  _291
REMARK  112  A    between atoms: _291  and  _292
REMARK  113  A    between atoms: _291  and  _294
REMARK  114  A    between atoms: _294  and  _295
REMARK  115  A    between atoms: _295  and  _296
REMARK  116  A    between atoms: _299  and  _301
REMARK  117  A    between atoms: _301  and  _302
REMARK  118  A    between atoms: _301  and  _304
REMARK  119  A    between atoms: _304  and  _305
REMARK  120  A    between atoms: _308  and  _310
REMARK  121  A    between atoms: _310  and  _311
REMARK  122  A    between atoms: _310  and  _313
REMARK  123  A    between atoms: _313  and  _314
REMARK  124  A    between atoms: _317  and  _319
REMARK  125  A    between atoms: _319  and  _320
REMARK  126  A    between atoms: _319  and  _322
REMARK  127  A    between atoms: _325  and  _327
REMARK  128  A    between atoms: _327  and  _328
REMARK  129  A    between atoms: _327  and  _330
REMARK  130  A    between atoms: _333  and  _335
REMARK  131  A    between atoms: _335  and  _336
REMARK  132  A    between atoms: _339  and  _341
REMARK  133  A    between atoms: _341  and  _342
REMARK  134  A    between atoms: _341  and  _344
REMARK  135  A    between atoms: _344  and  _345
REMARK  136  A    between atoms: _350  and  _352
REMARK  137  A    between atoms: _352  and  _353
REMARK  138  A    between atoms: _352  and  _355
REMARK  139  A    between atoms: _355  and  _356
REMARK  140  A    between atoms: _360  and  ZN_772
REMARK  141  A    between atoms: _361  and  _363
REMARK  142  A    between atoms: _363  and  _364
REMARK  143  A    between atoms: _363  and  _366
REMARK  144  A    between atoms: _366  and  _367
REMARK  145  A    between atoms: _367  and  _368
REMARK  146  A    between atoms: _371  and  _373
REMARK  147  A    between atoms: _373  and  _374
REMARK  148  A    between atoms: _373  and  _376
REMARK  149  A    between atoms: _376  and  _377
REMARK  150  A    between atoms: _377  and  _378
REMARK  151  A    between atoms: _380  and  _382
REMARK  152  A    between atoms: _382  and  _383
REMARK  153  A    between atoms: _382  and  _385
REMARK  154  A    between atoms: _385  and  _386
REMARK  155  A    between atoms: _390  and  ZN_772
REMARK  156  A    between atoms: _391  and  _393
REMARK  157  A    between atoms: _393  and  _394
REMARK  158  A    between atoms: _393  and  _396
REMARK  159  A    between atoms: _396  and  _397
REMARK  160  A    between atoms: _400  and  _402
REMARK  161  A    between atoms: _402  and  _403
REMARK  162  A    between atoms: _402  and  _405
REMARK  163  A    between atoms: _405  and  _406
REMARK  164  A    between atoms: _411  and  _412
REMARK  165  A    between atoms: _414  and  _416
REMARK  166  A    between atoms: _416  and  _417
REMARK  167  A    between atoms: _416  and  _419
REMARK  168  A    between atoms: _419  and  _420
REMARK  169  A    between atoms: _426  and  _428
REMARK  170  A    between atoms: _428  and  _429
REMARK  171  A    between atoms: _428  and  _431
REMARK  172  A    between atoms: _431  and  _432
REMARK  173  A    between atoms: _437  and  _438
REMARK  174  A    between atoms: _440  and  _442
REMARK  175  A    between atoms: _442  and  _443
REMARK  176  A    between atoms: _442  and  _445
REMARK  177  A    between atoms: _445  and  _446
REMARK  178  A    between atoms: _446  and  _447
REMARK  179  A    between atoms: _447  and  _448
REMARK  180  A    between atoms: _457  and  _459
REMARK  181  A    between atoms: _459  and  _460
REMARK  182  A    between atoms: _459  and  _462
REMARK  183  A    between atoms: _462  and  _463
REMARK  184  A    between atoms: _463  and  _464
REMARK  185  A    between atoms: _467  and  _469
REMARK  186  A    between atoms: _469  and  _470
REMARK  187  A    between atoms: _472  and  _474
REMARK  188  A    between atoms: _474  and  _475
REMARK  189  A    between atoms: _474  and  _477
REMARK  190  A    between atoms: _477  and  _478
REMARK  191  A    between atoms: _484  and  _485
REMARK  192  A    between atoms: _490  and  _492
REMARK  193  A    between atoms: _492  and  _493
REMARK  194  A    between atoms: _495  and  _497
REMARK  195  A    between atoms: _497  and  _498
REMARK  196  A    between atoms: _497  and  _500
REMARK  197  A    between atoms: _500  and  _501
REMARK  198  A    between atoms: _507  and  _509
REMARK  199  A    between atoms: _509  and  _510
REMARK  200  A    between atoms: _509  and  _512
REMARK  201  A    between atoms: _512  and  _513
REMARK  202  A    between atoms: _518  and  _520
REMARK  203  A    between atoms: _520  and  _521
REMARK  204  A    between atoms: _520  and  _523
REMARK  205  A    between atoms: _523  and  _524
REMARK  206  A    between atoms: _524  and  _525
REMARK  207  A    between atoms: _525  and  _526
REMARK  208  A    between atoms: _526  and  ZN_772
REMARK  209  A    between atoms: _528  and  _530
REMARK  210  A    between atoms: _530  and  _531
REMARK  211  A    between atoms: _534  and  _536
REMARK  212  A    between atoms: _536  and  _537
REMARK  213  A    between atoms: _539  and  _541
REMARK  214  A    between atoms: _541  and  _542
REMARK  215  A    between atoms: _541  and  _544
REMARK  216  A    between atoms: _544  and  _545
REMARK  217  A    between atoms: _548  and  _550
REMARK  218  A    between atoms: _550  and  _551
REMARK  219  A    between atoms: _554  and  _556
REMARK  220  A    between atoms: _556  and  _557
REMARK  221  A    between atoms: _556  and  _559
REMARK  222  A    between atoms: _559  and  _560
REMARK  223  A    between atoms: _563  and  _565
REMARK  224  A    between atoms: _565  and  _566
REMARK  225  A    between atoms: _565  and  _568
REMARK  226  A    between atoms: _568  and  _569
REMARK  227  A    between atoms: _569  and  _570
REMARK  228  A    between atoms: _570  and  _571
REMARK  229  A    between atoms: _571  and  _572
REMARK  230  A    between atoms: _576  and  _578
REMARK  231  A    between atoms: _578  and  _579
REMARK  232  A    between atoms: _578  and  _581
REMARK  233  A    between atoms: _581  and  _582
REMARK  234  A    between atoms: _588  and  _590
REMARK  235  A    between atoms: _590  and  _591
REMARK  236  A    between atoms: _590  and  _593
REMARK  237  A    between atoms: _593  and  _594
REMARK  238  A    between atoms: _600  and  _602
REMARK  239  A    between atoms: _602  and  _603
REMARK  240  A    between atoms: _602  and  _605
REMARK  241  A    between atoms: _605  and  _606
REMARK  242  A    between atoms: _608  and  _610
REMARK  243  A    between atoms: _610  and  _611
REMARK  244  A    between atoms: _610  and  _613
REMARK  245  A    between atoms: _616  and  _618
REMARK  246  A    between atoms: _618  and  _619
REMARK  247  A    between atoms: _618  and  _621
REMARK  248  A    between atoms: _621  and  _622
REMARK  249  A    between atoms: _622  and  _623
REMARK  250  A    between atoms: _623  and  _624
REMARK  251  A    between atoms: _624  and  _625
REMARK  252  A    between atoms: _629  and  _631
REMARK  253  A    between atoms: _631  and  _632
REMARK  254  A    between atoms: _631  and  _634
REMARK  255  A    between atoms: _634  and  _635
REMARK  256  A    between atoms: _641  and  _643
REMARK  257  A    between atoms: _643  and  _644
REMARK  258  A    between atoms: _643  and  _646
REMARK  259  A    between atoms: _646  and  _647
REMARK  260  A    between atoms: _652  and  _654
REMARK  261  A    between atoms: _654  and  _655
REMARK  262  A    between atoms: _654  and  _657
REMARK  263  A    between atoms: _657  and  _658
REMARK  264  A    between atoms: _660  and  _662
REMARK  265  A    between atoms: _662  and  _663
REMARK  266  A    between atoms: _662  and  _665
REMARK  267  A    between atoms: _665  and  _666
REMARK  268  A    between atoms: _668  and  _670
REMARK  269  A    between atoms: _670  and  _671
REMARK  270  A    between atoms: _670  and  _673
REMARK  271  A    between atoms: _677  and  _678
REMARK  272  A    between atoms: _683  and  _685
REMARK  273  A    between atoms: _685  and  _686
REMARK  274  A    between atoms: _685  and  _688
REMARK  275  A    between atoms: _688  and  _689
REMARK  276  A    between atoms: _694  and  _695
REMARK  277  A    between atoms: _697  and  _699
REMARK  278  A    between atoms: _699  and  _700
REMARK  279  A    between atoms: _699  and  _702
REMARK  280  A    between atoms: _702  and  _703
REMARK  281  A    between atoms: _703  and  _704
REMARK  282  A    between atoms: _704  and  _705
REMARK  283  A    between atoms: _714  and  _716
REMARK  284  A    between atoms: _716  and  _717
REMARK  285  A    between atoms: _716  and  _719
REMARK  286  A    between atoms: _719  and  _720
REMARK  287  A    between atoms: _725  and  _726
REMARK  288  A    between atoms: _728  and  _730
REMARK  289  A    between atoms: _730  and  _731
REMARK  290  A    between atoms: _730  and  _733
REMARK  291  A    between atoms: _733  and  _734
REMARK  292  A    between atoms: _740  and  _742
REMARK  293  A    between atoms: _742  and  _743
REMARK  294  A    between atoms: _742  and  _745
REMARK  295  A    between atoms: _745  and  _746
REMARK  296  A    between atoms: _748  and  _750
REMARK  297  A    between atoms: _750  and  _751
REMARK  298  A    between atoms: _750  and  _753
REMARK  299  A    between atoms: _753  and  _754
REMARK  300  A    between atoms: _760  and  _762
REMARK  301  A    between atoms: _762  and  _763
REMARK  302  A    between atoms: _762  and  _765
REMARK  303  A    between atoms: _765  and  _766
REMARK  304  A    between atoms: _766  and  _767
REMARK                            x       y       z     vdW  Elec       q    Type
REMARK                         _______ _______ _______ _____ _____    ______ ____
ROOT
ATOM      1  C   ILE A   2      21.146  -8.014 -13.587  0.00  0.00    +0.241 C 
ATOM      2  O   ILE A   2      21.744  -8.859 -12.914  0.00  0.00    -0.273 OA
ATOM      3  N   LYS A   3      19.868  -8.128 -13.937  0.00  0.00    -0.297 N 
ATOM      4  H   LYS A   3      19.402  -7.315 -14.388  0.00  0.00    +0.150 HD
ENDROOT
BRANCH   3   5
ATOM      5  CA  LYS A   3      19.095  -9.337 -13.717  0.00  0.00    +0.149 C 
BRANCH   5   6
ATOM      6  C   LYS A   3      18.666  -9.842 -15.084  0.00  0.00    +0.241 C 
ATOM      7  N   GLN A   4      19.227 -10.979 -15.490  0.00  0.00    -0.298 N 
ATOM      8  H   GLN A   4      19.859 -11.486 -14.838  0.00  0.00    +0.150 HD
ATOM      9  O   LYS A   3      17.854  -9.206 -15.760  0.00  0.00    -0.273 OA
BRANCH   7  10
ATOM     10  CA  GLN A   4      18.987 -11.541 -16.818  0.00  0.00    +0.137 C 
BRANCH  10  11
ATOM     11  C   GLN A   4      19.129 -13.062 -16.799  0.00  0.00    +0.227 C 
ATOM     12  O   GLN A   4      20.100 -13.589 -16.264  0.00  0.00    -0.286 OA
ENDBRANCH  10  11
BRANCH  10  13
ATOM     13  CB  GLN A   4      19.971 -10.935 -17.828  0.00  0.00    +0.037 C 
BRANCH  13  14
ATOM     14  CG  GLN A   4      19.773 -11.400 -19.271  0.00  0.00    +0.087 C 
BRANCH  14  15
ATOM     15  CD  GLN A   4      20.709 -10.710 -20.246  0.00  0.00    +0.219 C 
ATOM     16  OE1 GLN A   4      21.169  -9.596 -19.998  0.00  0.00    -0.275 OA
ATOM     17  NE2 GLN A   4      20.989 -11.369 -21.369  0.00  0.00    -0.329 N 
ATOM     18 HE21 GLN A   4      20.577 -12.309 -21.537  0.00  0.00    +0.145 HD
ATOM     19 HE22 GLN A   4      21.619 -10.943 -22.078  0.00  0.00    +0.145 HD
ENDBRANCH  14  15
ENDBRANCH  13  14
ENDBRANCH  10  13
ENDBRANCH   7  10
ENDBRANCH   5   6
BRANCH   5  20
ATOM     20  CB  LYS A   3      17.873  -9.045 -12.839  0.00  0.00    +0.029 C 
BRANCH  20  21
ATOM     21  CG  LYS A   3      16.955 -10.250 -12.610  0.00  0.00    +0.000 C 
BRANCH  21  22
ATOM     22  CD  LYS A   3      15.577  -9.844 -12.090  0.00  0.00    -0.024 C 
BRANCH  22  23
ATOM     23  CE  LYS A   3      14.832  -8.925 -13.067  0.00  0.00    -0.086 C 
BRANCH  23  24
ATOM     24  NZ  LYS A   3      14.775  -9.465 -14.460  0.00  0.00    +0.380 N 
ATOM     25  HZ1 LYS A   3      14.284 -10.382 -14.455  0.00  0.00    -0.089 HD
ATOM     26  HZ2 LYS A   3      15.742  -9.590 -14.822  0.00  0.00    -0.089 HD
ATOM     27  HZ3 LYS A   3      14.259  -8.798 -15.068  0.00  0.00    -0.089 HD
ENDBRANCH  23  24
ENDBRANCH  22  23
ENDBRANCH  21  22
ENDBRANCH  20  21
ENDBRANCH   5  20
ENDBRANCH   3   5
BRANCH   1  28
ATOM     28  CA  ILE A   2      21.841  -6.730 -14.033  0.00  0.00    +0.148 C 
BRANCH  28  31
ATOM     29  C   ARG A   1      22.369  -5.099 -12.294  0.00  0.00    +0.238 C 
ATOM     30  O   ARG A   1      21.515  -4.305 -12.677  0.00  0.00    -0.274 OA
ATOM     31  N   ILE A   2      22.669  -6.221 -12.943  0.00  0.00    -0.297 N 
ATOM     32  H   ILE A   2      23.519  -6.752 -12.666  0.00  0.00    +0.150 HD
BRANCH  29  33
ATOM     33  CA  ARG A   1      23.150  -4.842 -11.016  0.00  0.00    +0.145 C 
BRANCH  33  34
ATOM     34  N   ARG A   1      23.327  -3.413 -10.730  0.00  0.00    -0.238 NA
ATOM     35  H   ARG A   1      22.554  -2.751 -10.947  0.00  0.00    +0.142 HD
ENDBRANCH  33  34
BRANCH  33  36
ATOM     36  CB  ARG A   1      22.426  -5.550  -9.863  0.00  0.00    +0.030 C 
BRANCH  36  37
ATOM     37  CG  ARG A   1      23.033  -5.359  -8.483  0.00  0.00    +0.045 C 
BRANCH  37  38
ATOM     38  CD  ARG A   1      22.192  -6.047  -7.431  0.00  0.00    +0.174 C 
BRANCH  38  39
ATOM     39  NE  ARG A   1      22.360  -5.425  -6.121  0.00  0.00    -0.265 N 
ATOM     40  CZ  ARG A   1      21.604  -5.684  -5.057  0.00  0.00    +0.342 C 
ATOM     41  NH2 ARG A   1      21.840  -5.056  -3.911  0.00  0.00    -0.292 N 
ATOM     42 HH21 ARG A   1      21.251  -5.256  -3.078  0.00  0.00    +0.255 HD
ATOM     43 HH22 ARG A   1      22.614  -4.364  -3.847  0.00  0.00    +0.255 HD
ATOM     44  NH1 ARG A   1      20.607  -6.559  -5.135  0.00  0.00    -0.292 N 
ATOM     45 HH11 ARG A   1      20.021  -6.756  -4.299  0.00  0.00    +0.255 HD
ATOM     46 HH12 ARG A   1      20.413  -7.047  -6.032  0.00  0.00    +0.255 HD
ATOM     47  HE  ARG A   1      23.125  -4.730  -6.011  0.00  0.00    +0.259 HD
ENDBRANCH  38  39
ENDBRANCH  37  38
ENDBRANCH  36  37
ENDBRANCH  33  36
ENDBRANCH  29  33
ENDBRANCH  28  31
BRANCH  28  48
ATOM     48  CB  ILE A   2      22.665  -6.934 -15.339  0.00  0.00    +0.027 C 
ATOM     49  CG2 ILE A   2      21.917  -7.830 -16.335  0.00  0.00    +0.002 C 
BRANCH  48  50
ATOM     50  CG1 ILE A   2      22.973  -5.571 -15.973  0.00  0.00    +0.002 C 
ATOM     51  CD1 ILE A   2      24.056  -5.585 -17.025  0.00  0.00    +0.000 C 
ENDBRANCH  48  50
ENDBRANCH  28  48
ENDBRANCH   1  28
TORSDOF 22
REMARK  Name = ../refined-set-2016/2xy9/2xy9_pocket.pdb
REMARK  304 active torsions:
REMARK  status: ('A' for Active; 'I' for Inactive)
REMARK    1  A    between atoms: _1  and  _3
REMARK    2  A    between atoms: _3  and  _4
REMARK    3  A    between atoms: _3  and  _6
REMARK    4  A    between atoms: _6  and  _7
REMARK    5  A    between atoms: _12  and  _14
REMARK    6  A    between atoms: _14  and  _15
REMARK    7  A    between atoms: _14  and  _17
REMARK    8  A    between atoms: _17  and  _18
REMARK    9  A    between atoms: _23  and  _25
REMARK   10  A    between atoms: _25  and  _26
REMARK   11  A    between atoms: _25  and  _28
REMARK   12  A    between atoms: _28  and  _29
REMARK   13  A    between atoms: _29  and  _30
REMARK   14  A    between atoms: _33  and  _35
REMARK   15  A    between atoms: _35  and  _36
REMARK   16  A    between atoms: _35  and  _38
REMARK   17  A    between atoms: _38  and  _39
REMARK   18  A    between atoms: _44  and  _45
REMARK   19  A    between atoms: _47  and  _49
REMARK   20  A    between atoms: _49  and  _50
REMARK   21  A    between atoms: _49  and  _52
REMARK   22  A    between atoms: _52  and  _53
REMARK   23  A    between atoms: _56  and  _58
REMARK   24  A    between atoms: _58  and  _59
REMARK   25  A    between atoms: _61  and  _63
REMARK   26  A    between atoms: _63  and  _64
REMARK   27  A    between atoms: _63  and  _66
REMARK   28  A    between atoms: _66  and  _67
REMARK   29  A    between atoms: _72  and  _74
REMARK   30  A    between atoms: _74  and  _75
REMARK   31  A    between atoms: _74  and  _77
REMARK   32  A    between atoms: _77  and  _78
REMARK   33  A    between atoms: _88  and  _90
REMARK   34  A    between atoms: _90  and  _91
REMARK   35  A    between atoms: _90  and  _93
REMARK   36  A    between atoms: _93  and  _94
REMARK   37  A    between atoms: _94  and  _95
REMARK   38  A    between atoms: _100  and  _102
REMARK   39  A    between atoms: _102  and  _103
REMARK   40  A    between atoms: _102  and  _105
REMARK   41  A    between atoms: _105  and  _106
REMARK   42  A    between atoms: _109  and  _111
REMARK   43  A    between atoms: _111  and  _112
REMARK   44  A    between atoms: _111  and  _114
REMARK   45  A    between atoms: _114  and  _115
REMARK   46  A    between atoms: _125  and  _127
REMARK   47  A    between atoms: _127  and  _128
REMARK   48  A    between atoms: _127  and  _130
REMARK   49  A    between atoms: _130  and  _131
REMARK   50  A    between atoms: _133  and  _135
REMARK   51  A    between atoms: _135  and  _136
REMARK   52  A    between atoms: _135  and  _138
REMARK   53  A    between atoms: _138  and  _139
REMARK   54  A    between atoms: _144  and  _146
REMARK   55  A    between atoms: _146  and  _147
REMARK   56  A    between atoms: _146  and  _149
REMARK   57  A    between atoms: _152  and  _154
REMARK   58  A    between atoms: _154  and  _155
REMARK   59  A    between atoms: _154  and  _157
REMARK   60  A    between atoms: _159  and  _161
REMARK   61  A    between atoms: _161  and  _162
REMARK   62  A    between atoms: _161  and  _164
REMARK   63  A    between atoms: _164  and  _165
REMARK   64  A    between atoms: _170  and  _172
REMARK   65  A    between atoms: _172  and  _173
REMARK   66  A    between atoms: _176  and  _178
REMARK   67  A    between atoms: _178  and  _179
REMARK   68  A    between atoms: _178  and  _181
REMARK   69  A    between atoms: _181  and  _182
REMARK   70  A    between atoms: _184  and  _186
REMARK   71  A    between atoms: _186  and  _187
REMARK   72  A    between atoms: _190  and  _192
REMARK   73  A    between atoms: _192  and  _193
REMARK   74  A    between atoms: _192  and  _195
REMARK   75  A    between atoms: _195  and  _196
REMARK   76  A    between atoms: _206  and  _208
REMARK   77  A    between atoms: _208  and  _209
REMARK   78  A    between atoms: _208  and  _211
REMARK   79  A    between atoms: _211  and  _212
REMARK   80  A    between atoms: _215  and  _217
REMARK   81  A    between atoms: _217  and  _218
REMARK   82  A    between atoms: _217  and  _220
REMARK   83  A    between atoms: _220  and  _221
REMARK   84  A    between atoms: _226  and  _227
REMARK   85  A    between atoms: _229  and  _231
REMARK   86  A    between atoms: _231  and  _232
REMARK   87  A    between atoms: _231  and  _234
REMARK   88  A    between atoms: _234  and  _235
REMARK   89  A    between atoms: _235  and  _236
REMARK   90  A    between atoms: _236  and  _237
REMARK   91  A    between atoms: _246  and  _248
REMARK   92  A    between atoms: _248  and  _249
REMARK   93  A    between atoms: _248  and  _251
REMARK   94  A    between atoms: _251  and  _252
REMARK   95  A    between atoms: _255  and  _257
REMARK   96  A    between atoms: _257  and  _258
REMARK   97  A    between atoms: _257  and  _260
REMARK   98  A    between atoms: _260  and  _261
REMARK   99  A    between atoms: _261  and  _262
REMARK  100  A    between atoms: _262  and  _263
REMARK  101  A    between atoms: _263  and  _264
REMARK  102  A    between atoms: _268  and  _270
REMARK  103  A    between atoms: _270  and  _271
REMARK  104  A    between atoms: _270  and  _273
REMARK  105  A    between atoms: _273  and  _274
REMARK  106  A    between atoms: _274  and  _275
REMARK  107  A    between atoms: _280  and  _282
REMARK  108  A    between atoms: _282  and  _283
REMARK  109  A    between atoms: _282  and  _285
REMARK  110  A    between atoms: _285  and  _286
REMARK  111  A    between atoms: _289  and  _291
REMARK  112  A    between atoms: _291  and  _292
REMARK  113  A    between atoms: _291  and  _294
REMARK  114  A    between atoms: _294  and  _295
REMARK  115  A    between atoms: _295  and  _296
REMARK  116  A    between atoms: _299  and  _301
REMARK  117  A    between atoms: _301  and  _302
REMARK  118  A    between atoms: _301  and  _304
REMARK  119  A    between atoms: _304  and  _305
REMARK  120  A    between atoms: _308  and  _310
REMARK  121  A    between atoms: _310  and  _311
REMARK  122  A    between atoms: _310  and  _313
REMARK  123  A    between atoms: _313  and  _314
REMARK  124  A    between atoms: _317  and  _319
REMARK  125  A    between atoms: _319  and  _320
REMARK  126  A    between atoms: _319  and  _322
REMARK  127  A    between atoms: _325  and  _327
REMARK  128  A    between atoms: _327  and  _328
REMARK  129  A    between atoms: _327  and  _330
REMARK  130  A    between atoms: _333  and  _335
REMARK  131  A    between atoms: _335  and  _336
REMARK  132  A    between atoms: _339  and  _341
REMARK  133  A    between atoms: _341  and  _342
REMARK  134  A    between atoms: _341  and  _344
REMARK  135  A    between atoms: _344  and  _345
REMARK  136  A    between atoms: _350  and  _352
REMARK  137  A    between atoms: _352  and  _353
REMARK  138  A    between atoms: _352  and  _355
REMARK  139  A    between atoms: _355  and  _356
REMARK  140  A    between atoms: _360  and  ZN_772
REMARK  141  A    between atoms: _361  and  _363
REMARK  142  A    between atoms: _363  and  _364
REMARK  143  A    between atoms: _363  and  _366
REMARK  144  A    between atoms: _366  and  _367
REMARK  145  A    between atoms: _367  and  _368
REMARK  146  A    between atoms: _371  and  _373
REMARK  147  A    between atoms: _373  and  _374
REMARK  148  A    between atoms: _373  and  _376
REMARK  149  A    between atoms: _376  and  _377
REMARK  150  A    between atoms: _377  and  _378
REMARK  151  A    between atoms: _380  and  _382
REMARK  152  A    between atoms: _382  and  _383
REMARK  153  A    between atoms: _382  and  _385
REMARK  154  A    between atoms: _385  and  _386
REMARK  155  A    between atoms: _390  and  ZN_772
REMARK  156  A    between atoms: _391  and  _393
REMARK  157  A    between atoms: _393  and  _394
REMARK  158  A    between atoms: _393  and  _396
REMARK  159  A    between atoms: _396  and  _397
REMARK  160  A    between atoms: _400  and  _402
REMARK  161  A    between atoms: _402  and  _403
REMARK  162  A    between atoms: _402  and  _405
REMARK  163  A    between atoms: _405  and  _406
REMARK  164  A    between atoms: _411  and  _412
REMARK  165  A    between atoms: _414  and  _416
REMARK  166  A    between atoms: _416  and  _417
REMARK  167  A    between atoms: _416  and  _419
REMARK  168  A    between atoms: _419  and  _420
REMARK  169  A    between atoms: _426  and  _428
REMARK  170  A    between atoms: _428  and  _429
REMARK  171  A    between atoms: _428  and  _431
REMARK  172  A    between atoms: _431  and  _432
REMARK  173  A    between atoms: _437  and  _438
REMARK  174  A    between atoms: _440  and  _442
REMARK  175  A    between atoms: _442  and  _443
REMARK  176  A    between atoms: _442  and  _445
REMARK  177  A    between atoms: _445  and  _446
REMARK  178  A    between atoms: _446  and  _447
REMARK  179  A    between atoms: _447  and  _448
REMARK  180  A    between atoms: _457  and  _459
REMARK  181  A    between atoms: _459  and  _460
REMARK  182  A    between atoms: _459  and  _462
REMARK  183  A    between atoms: _462  and  _463
REMARK  184  A    between atoms: _463  and  _464
REMARK  185  A    between atoms: _467  and  _469
REMARK  186  A    between atoms: _469  and  _470
REMARK  187  A    between atoms: _472  and  _474
REMARK  188  A    between atoms: _474  and  _475
REMARK  189  A    between atoms: _474  and  _477
REMARK  190  A    between atoms: _477  and  _478
REMARK  191  A    between atoms: _484  and  _485
REMARK  192  A    between atoms: _490  and  _492
REMARK  193  A    between atoms: _492  and  _493
REMARK  194  A    between atoms: _495  and  _497
REMARK  195  A    between atoms: _497  and  _498
REMARK  196  A    between atoms: _497  and  _500
REMARK  197  A    between atoms: _500  and  _501
REMARK  198  A    between atoms: _507  and  _509
REMARK  199  A    between atoms: _509  and  _510
REMARK  200  A    between atoms: _509  and  _512
REMARK  201  A    between atoms: _512  and  _513
REMARK  202  A    between atoms: _518  and  _520
REMARK  203  A    between atoms: _520  and  _521
REMARK  204  A    between atoms: _520  and  _523
REMARK  205  A    between atoms: _523  and  _524
REMARK  206  A    between atoms: _524  and  _525
REMARK  207  A    between atoms: _525  and  _526
REMARK  208  A    between atoms: _526  and  ZN_772
REMARK  209  A    between atoms: _528  and  _530
REMARK  210  A    between atoms: _530  and  _531
REMARK  211  A    between atoms: _534  and  _536
REMARK  212  A    between atoms: _536  and  _537
REMARK  213  A    between atoms: _539  and  _541
REMARK  214  A    between atoms: _541  and  _542
REMARK  215  A    between atoms: _541  and  _544
REMARK  216  A    between atoms: _544  and  _545
REMARK  217  A    between atoms: _548  and  _550
REMARK  218  A    between atoms: _550  and  _551
REMARK  219  A    between atoms: _554  and  _556
REMARK  220  A    between atoms: _556  and  _557
REMARK  221  A    between atoms: _556  and  _559
REMARK  222  A    between atoms: _559  and  _560
REMARK  223  A    between atoms: _563  and  _565
REMARK  224  A    between atoms: _565  and  _566
REMARK  225  A    between atoms: _565  and  _568
REMARK  226  A    between atoms: _568  and  _569
REMARK  227  A    between atoms: _569  and  _570
REMARK  228  A    between atoms: _570  and  _571
REMARK  229  A    between atoms: _571  and  _572
REMARK  230  A    between atoms: _576  and  _578
REMARK  231  A    between atoms: _578  and  _579
REMARK  232  A    between atoms: _578  and  _581
REMARK  233  A    between atoms: _581  and  _582
REMARK  234  A    between atoms: _588  and  _590
REMARK  235  A    between atoms: _590  and  _591
REMARK  236  A    between atoms: _590  and  _593
REMARK  237  A    between atoms: _593  and  _594
REMARK  238  A    between atoms: _600  and  _602
REMARK  239  A    between atoms: _602  and  _603
REMARK  240  A    between atoms: _602  and  _605
REMARK  241  A    between atoms: _605  and  _606
REMARK  242  A    between atoms: _608  and  _610
REMARK  243  A    between atoms: _610  and  _611
REMARK  244  A    between atoms: _610  and  _613
REMARK  245  A    between atoms: _616  and  _618
REMARK  246  A    between atoms: _618  and  _619
REMARK  247  A    between atoms: _618  and  _621
REMARK  248  A    between atoms: _621  and  _622
REMARK  249  A    between atoms: _622  and  _623
REMARK  250  A    between atoms: _623  and  _624
REMARK  251  A    between atoms: _624  and  _625
REMARK  252  A    between atoms: _629  and  _631
REMARK  253  A    between atoms: _631  and  _632
REMARK  254  A    between atoms: _631  and  _634
REMARK  255  A    between atoms: _634  and  _635
REMARK  256  A    between atoms: _641  and  _643
REMARK  257  A    between atoms: _643  and  _644
REMARK  258  A    between atoms: _643  and  _646
REMARK  259  A    between atoms: _646  and  _647
REMARK  260  A    between atoms: _652  and  _654
REMARK  261  A    between atoms: _654  and  _655
REMARK  262  A    between atoms: _654  and  _657
REMARK  263  A    between atoms: _657  and  _658
REMARK  264  A    between atoms: _660  and  _662
REMARK  265  A    between atoms: _662  and  _663
REMARK  266  A    between atoms: _662  and  _665
REMARK  267  A    between atoms: _665  and  _666
REMARK  268  A    between atoms: _668  and  _670
REMARK  269  A    between atoms: _670  and  _671
REMARK  270  A    between atoms: _670  and  _673
REMARK  271  A    between atoms: _677  and  _678
REMARK  272  A    between atoms: _683  and  _685
REMARK  273  A    between atoms: _685  and  _686
REMARK  274  A    between atoms: _685  and  _688
REMARK  275  A    between atoms: _688  and  _689
REMARK  276  A    between atoms: _694  and  _695
REMARK  277  A    between atoms: _697  and  _699
REMARK  278  A    between atoms: _699  and  _700
REMARK  279  A    between atoms: _699  and  _702
REMARK  280  A    between atoms: _702  and  _703
REMARK  281  A    between atoms: _703  and  _704
REMARK  282  A    between atoms: _704  and  _705
REMARK  283  A    between atoms: _714  and  _716
REMARK  284  A    between atoms: _716  and  _717
REMARK  285  A    between atoms: _716  and  _719
REMARK  286  A    between atoms: _719  and  _720
REMARK  287  A    between atoms: _725  and  _726
REMARK  288  A    between atoms: _728  and  _730
REMARK  289  A    between atoms: _730  and  _731
REMARK  290  A    between atoms: _730  and  _733
REMARK  291  A    between atoms: _733  and  _734
REMARK  292  A    between atoms: _740  and  _742
REMARK  293  A    between atoms: _742  and  _743
REMARK  294  A    between atoms: _742  and  _745
REMARK  295  A    between atoms: _745  and  _746
REMARK  296  A    between atoms: _748  and  _750
REMARK  297  A    between atoms: _750  and  _751
REMARK  298  A    between atoms: _750  and  _753
REMARK  299  A    between atoms: _753  and  _754
REMARK  300  A    between atoms: _760  and  _762
REMARK  301  A    between atoms: _762  and  _763
REMARK  302  A    between atoms: _762  and  _765
REMARK  303  A    between atoms: _765  and  _766
REMARK  304  A    between atoms: _766  and  _767
REMARK                            x       y       z     vdW  Elec       q    Type
REMARK                         _______ _______ _______ _____ _____    ______ ____
ROOT
ATOM      1  C   UNK A   9      22.393  -3.450 -24.174  0.00  0.00    +0.000 C 
ENDROOT
BRANCH   1   2
ATOM      2  C   UNK A   9      22.264  -3.113 -22.694  0.00  0.00    +0.000 C 
ATOM      3  N   GLU A  10      22.210  -4.156 -21.872  0.00  0.00    +0.000 N 
ATOM      4  H   GLU A  10      22.284  -5.114 -22.271  0.00  0.00    +0.000 HD
ATOM      5  O   UNK A   9      22.229  -1.936 -22.310  0.00  0.00    +0.000 OA
BRANCH   3   6
ATOM      6  CA  GLU A  10      22.051  -4.005 -20.429  0.00  0.00    +0.000 C 
BRANCH   6   7
ATOM      7  C   GLU A  10      23.244  -3.307 -19.782  0.00  0.00    +0.000 C 
ATOM      8  O   GLU A  10      23.074  -2.485 -18.881  0.00  0.00    +0.000 OA
ATOM      9  N   MET A  11      24.444  -3.628 -20.256  0.00  0.00    +0.000 N 
ATOM     10  H   MET A  11      24.516  -4.349 -21.002  0.00  0.00    +0.000 HD
BRANCH   9  11
ATOM     11  CA  MET A  11      25.665  -2.997 -19.759  0.00  0.00    +0.000 C 
BRANCH  11  12
ATOM     12  C   MET A  11      25.736  -1.516 -20.137  0.00  0.00    +0.000 C 
ATOM     13  O   MET A  11      26.410  -0.727 -19.466  0.00  0.00    +0.000 OA
ENDBRANCH  11  12
BRANCH  11  14
ATOM     14  CB  MET A  11      26.902  -3.766 -20.235  0.00  0.00    +0.000 C 
BRANCH  14  15
ATOM     15  CG  MET A  11      27.061  -5.122 -19.543  0.00  0.00    +0.000 C 
BRANCH  15  16
ATOM     16  SD  MET A  11      27.614  -4.948 -17.837  0.00  0.00    +0.000 S 
ATOM     17  CE  MET A  11      29.376  -4.766 -18.117  0.00  0.00    +0.000 C 
ENDBRANCH  15  16
ENDBRANCH  14  15
ENDBRANCH  11  14
ENDBRANCH   9  11
ENDBRANCH   6   7
BRANCH   6  18
ATOM     18  CB  GLU A  10      21.796  -5.366 -19.775  0.00  0.00    +0.000 C 
BRANCH  18  19
ATOM     19  CG  GLU A  10      20.476  -6.029 -20.189  0.00  0.00    +0.000 C 
BRANCH  19  20
ATOM     20  CD  GLU A  10      19.260  -5.152 -19.942  0.00  0.00    +0.000 C 
ATOM     21  OE2 GLU A  10      19.231  -4.418 -18.932  0.00  0.00    +0.000 OA
ATOM     22  OE1 GLU A  10      18.332  -5.200 -20.769  0.00  0.00    +0.000 OA
ENDBRANCH  19  20
ENDBRANCH  18  19
ENDBRANCH   6  18
ENDBRANCH   3   6
ENDBRANCH   1   2
BRANCH   1  25
ATOM     23  C   HIS A   8      24.721  -4.166 -23.958  0.00  0.00    +0.000 C 
ATOM     24  O   HIS A   8      25.055  -3.124 -23.388  0.00  0.00    +0.000 OA
ATOM     25  N   UNK A   9      23.482  -4.399 -24.394  0.00  0.00    +0.000 N 
ATOM     26  H   UNK A   9      23.285  -5.283 -24.906  0.00  0.00    +0.000 HD
BRANCH  23  27
ATOM     27  CA  HIS A   8      25.739  -5.278 -24.191  0.00  0.00    +0.000 C 
BRANCH  27  30
ATOM     28  C   ALA A   7      24.813  -6.907 -22.603  0.00  0.00    +0.000 C 
ATOM     29  O   ALA A   7      24.950  -6.152 -21.640  0.00  0.00    +0.000 OA
ATOM     30  N   HIS A   8      25.190  -6.592 -23.845  0.00  0.00    +0.000 N 
ATOM     31  H   HIS A   8      25.090  -7.306 -24.595  0.00  0.00    +0.000 HD
BRANCH  28  32
ATOM     32  CA  ALA A   7      24.178  -8.283 -22.412  0.00  0.00    +0.000 C 
ATOM     33  CB  ALA A   7      25.252  -9.359 -22.334  0.00  0.00    +0.000 C 
BRANCH  32  36
ATOM     34  C   UNK A   6      22.176  -7.778 -23.727  0.00  0.00    +0.000 C 
ATOM     35  O   UNK A   6      21.947  -6.756 -23.083  0.00  0.00    +0.000 OA
ATOM     36  N   ALA A   7      23.205  -8.585 -23.468  0.00  0.00    +0.000 N 
ATOM     37  H   ALA A   7      23.321  -9.452 -24.030  0.00  0.00    +0.000 HD
BRANCH  34  38
ATOM     38  C   UNK A   6      21.271  -8.169 -24.897  0.00  0.00    +0.000 C 
BRANCH  38  40
ATOM     39  C   HIS A   5      22.946  -7.782 -26.645  0.00  0.00    +0.000 C 
ATOM     40  N   UNK A   6      22.065  -8.591 -26.058  0.00  0.00    +0.000 N 
ATOM     41  H   UNK A   6      21.936  -9.552 -26.434  0.00  0.00    +0.000 HD
ATOM     42  O   HIS A   5      23.133  -6.619 -26.288  0.00  0.00    +0.000 OA
BRANCH  39  43
ATOM     43  CA  HIS A   5      23.766  -8.374 -27.800  0.00  0.00    +0.000 C 
BRANCH  43  46
ATOM     44  C   PHE A   4      25.114  -9.882 -26.424  0.00  0.00    +0.000 C 
ATOM     45  O   PHE A   4      25.580  -8.950 -25.771  0.00  0.00    +0.000 OA
ATOM     46  N   HIS A   5      24.276  -9.704 -27.449  0.00  0.00    +0.000 N 
ATOM     47  H   HIS A   5      23.978 -10.527 -28.011  0.00  0.00    +0.000 HD
BRANCH  44  48
ATOM     48  CA  PHE A   4      25.461 -11.325 -26.060  0.00  0.00    +0.000 C 
BRANCH  48  51
ATOM     49  C   GLY A   3      23.267 -11.948 -25.258  0.00  0.00    +0.000 C 
ATOM     50  O   GLY A   3      23.383 -11.240 -24.253  0.00  0.00    +0.000 OA
ATOM     51  N   PHE A   4      24.253 -12.132 -26.132  0.00  0.00    +0.000 N 
ATOM     52  H   PHE A   4      24.159 -12.857 -26.871  0.00  0.00    +0.000 HD
BRANCH  49  53
ATOM     53  CA  GLY A   3      21.951 -12.658 -25.549  0.00  0.00    +0.000 C 
BRANCH  53  55
ATOM     54  C   PRO A   2      21.519 -12.201 -27.902  0.00  0.00    +0.000 C 
ATOM     55  N   GLY A   3      21.827 -13.073 -26.946  0.00  0.00    +0.000 N 
ATOM     56  H   GLY A   3      21.983 -14.070 -27.197  0.00  0.00    +0.000 HD
ATOM     57  O   PRO A   2      21.369 -10.999 -27.686  0.00  0.00    +0.000 OA
BRANCH  54  58
ATOM     58  CA  PRO A   2      21.374 -12.761 -29.321  0.00  0.00    +0.000 C 
BRANCH  58  61
ATOM     59  C   UNK A   1      23.760 -13.233 -29.584  0.00  0.00    +0.000 C 
ATOM     60  O   UNK A   1      24.085 -12.105 -29.201  0.00  0.00    +0.000 OA
ATOM     61  N   PRO A   2      22.493 -13.630 -29.682  0.00  0.00    +0.000 N 
ATOM     62  H   PRO A   2      22.293 -14.590 -30.027  0.00  0.00    +0.000 HD
BRANCH  59  63
ATOM     63  C   UNK A   1      24.831 -14.262 -29.962  0.00  0.00    +0.000 C 
BRANCH  63  64
ATOM     64  N   UNK A   1      24.510 -15.614 -29.500  0.00  0.00    +0.000 NA
ATOM     65  H   UNK A   1      24.323 -16.363 -30.197  0.00  0.00    +0.000 HD
ENDBRANCH  63  64
BRANCH  63  66
ATOM     66  C   UNK A   1      25.099 -14.247 -31.470  0.00  0.00    +0.000 C 
BRANCH  66  67
ATOM     67  C   UNK A   1      25.504 -12.901 -32.086  0.00  0.00    +0.000 C 
ATOM     68  C   UNK A   1      26.752 -12.339 -31.409  0.00  0.00    +0.000 C 
ATOM     69  C   UNK A   1      25.716 -13.047 -33.581  0.00  0.00    +0.000 C 
ENDBRANCH  66  67
ENDBRANCH  63  66
ENDBRANCH  59  63
ENDBRANCH  58  61
BRANCH  58  70
ATOM     70  CB  PRO A   2      20.041 -13.510 -29.476  0.00  0.00    +0.000 C 
BRANCH  70  71
ATOM     71  CG  PRO A   2      18.825 -12.779 -28.908  0.00  0.00    +0.000 C 
BRANCH  71  72
ATOM     72  CD  PRO A   2      17.514 -13.445 -29.290  0.00  0.00    +0.000 C 
ATOM     73  OE2 PRO A   2      16.919 -14.127 -28.431  0.00  0.00    +0.000 OA
ATOM     74  OE1 PRO A   2      17.090 -13.298 -30.455  0.00  0.00    +0.000 OA
ENDBRANCH  71  72
ENDBRANCH  70  71
ENDBRANCH  58  70
ENDBRANCH  54  58
ENDBRANCH  53  55
BRANCH  53  75
ATOM     75  CB  GLY A   3      21.738 -13.837 -24.603  0.00  0.00    +0.000 C 
BRANCH  75  76
ATOM     76  CG  GLY A   3      20.267 -14.059 -24.270  0.00  0.00    +0.000 C 
ATOM     77  OD2 GLY A   3      19.980 -14.817 -23.320  0.00  0.00    +0.000 OA
ATOM     78  OD1 GLY A   3      19.399 -13.468 -24.949  0.00  0.00    +0.000 OA
ENDBRANCH  75  76
ENDBRANCH  53  75
ENDBRANCH  49  53
ENDBRANCH  48  51
BRANCH  48  79
ATOM     79  CB  PHE A   4      26.573 -11.880 -26.958  0.00  0.00    +0.000 C 
BRANCH  79  80
ATOM     80  CG  PHE A   4      27.917 -11.135 -26.951  0.00  0.00    +0.000 C 
ATOM     81  CD2 PHE A   4      28.535 -11.103 -25.560  0.00  0.00    +0.000 C 
ATOM     82  CD1 PHE A   4      28.884 -11.750 -27.965  0.00  0.00    +0.000 C 
ENDBRANCH  79  80
ENDBRANCH  48  79
ENDBRANCH  44  48
ENDBRANCH  43  46
BRANCH  43  83
ATOM     83  CB  HIS A   5      22.951  -8.380 -29.124  0.00  0.00    +0.000 C 
ATOM     84  CG2 HIS A   5      22.260  -7.043 -29.343  0.00  0.00    +0.000 C 
ATOM     85  CG1 HIS A   5      23.858  -8.696 -30.310  0.00  0.00    +0.000 C 
ENDBRANCH  43  83
ENDBRANCH  39  43
ENDBRANCH  38  40
BRANCH  38  86
ATOM     86  C   UNK A   6      20.247  -9.250 -24.445  0.00  0.00    +0.000 C 
ATOM     87  C   UNK A   6      19.480  -8.790 -23.205  0.00  0.00    +0.000 C 
ATOM     88  C   UNK A   6      19.274  -9.566 -25.566  0.00  0.00    +0.000 C 
ENDBRANCH  38  86
ENDBRANCH  34  38
ENDBRANCH  32  36
ENDBRANCH  28  32
ENDBRANCH  27  30
BRANCH  27  89
ATOM     89  CB  HIS A   8      26.223  -5.251 -25.645  0.00  0.00    +0.000 C 
BRANCH  89  90
ATOM     90  CG  HIS A   8      27.592  -5.821 -25.832  0.00  0.00    +0.000 A 
ATOM     91  CD2 HIS A   8      28.807  -5.223 -25.881  0.00  0.00    +0.000 A 
ATOM     92  NE2 HIS A   8      29.739  -6.215 -26.059  0.00  0.00    +0.000 NA
ATOM     93  CE1 HIS A   8      29.121  -7.382 -26.114  0.00  0.00    +0.000 A 
ATOM     94  ND1 HIS A   8      27.823  -7.172 -25.981  0.00  0.00    +0.000 NA
ENDBRANCH  89  90
ENDBRANCH  27  89
ENDBRANCH  23  27
ENDBRANCH   1  25
BRANCH   1  95
ATOM     95  C   UNK A   9      21.065  -4.000 -24.703  0.00  0.00    +0.000 C 
BRANCH  95  96
ATOM     96  C   UNK A   9      19.890  -3.138 -24.370  0.00  0.00    +0.000 A 
ATOM     97  C   UNK A   9      19.154  -3.030 -23.238  0.00  0.00    +0.000 A 
ATOM     98  N   UNK A   9      18.205  -2.064 -23.463  0.00  0.00    +0.000 N 
ATOM     99  C   UNK A   9      18.353  -1.596 -24.690  0.00  0.00    +0.000 A 
ATOM    100  N   UNK A   9      19.372  -2.218 -25.253  0.00  0.00    +0.000 NA
BRANCH  98 101
ATOM    101 ZN   UNK A   1      16.989  -1.380 -22.001  0.00  0.00    +0.000 Zn
BRANCH 101 102
ATOM    102  N   UNK A   1      18.243  -0.419 -20.739  0.00  0.00    +0.000 N 
ATOM    103  C   UNK A   1      19.193  -0.940 -19.895  0.00  0.00    +0.000 A 
ATOM    104  C   UNK A   1      19.917   0.102 -19.416  0.00  0.00    +0.000 A 
ATOM    105  N   UNK A   1      19.369   1.237 -19.974  0.00  0.00    +0.000 NA
ATOM    106  C   UNK A   1      18.371   0.897 -20.770  0.00  0.00    +0.000 A 
BRANCH 104 107
ATOM    107  C   UNK A   1      21.054   0.141 -18.444  0.00  0.00    +0.000 C 
BRANCH 107 108
ATOM    108  C   UNK A   1      22.222   1.036 -18.865  0.00  0.00    +0.000 C 
BRANCH 108 109
ATOM    109  C   UNK A   1      23.139   1.242 -17.660  0.00  0.00    +0.000 C 
ATOM    110  O   UNK A   1      23.137   2.313 -17.049  0.00  0.00    +0.000 OA
ATOM    111  N   PRO A   2      23.919   0.213 -17.324  0.00  0.00    +0.000 N 
ATOM    112  H   PRO A   2      23.871  -0.663 -17.883  0.00  0.00    +0.000 HD
BRANCH 111 113
ATOM    113  CA  PRO A   2      24.842   0.285 -16.187  0.00  0.00    +0.000 C 
BRANCH 113 114
ATOM    114  C   PRO A   2      25.881   1.390 -16.382  0.00  0.00    +0.000 C 
ATOM    115  O   PRO A   2      26.136   2.171 -15.459  0.00  0.00    +0.000 OA
ENDBRANCH 113 114
BRANCH 113 116
ATOM    116  CB  PRO A   2      25.517  -1.080 -15.887  0.00  0.00    +0.000 C 
ATOM    117  CG2 PRO A   2      26.535  -0.957 -14.740  0.00  0.00    +0.000 C 
BRANCH 116 118
ATOM    118  CG1 PRO A   2      24.463  -2.163 -15.599  0.00  0.00    +0.000 C 
ATOM    119  CD1 PRO A   2      23.690  -2.014 -14.272  0.00  0.00    +0.000 C 
ENDBRANCH 116 118
ENDBRANCH 113 116
ENDBRANCH 111 113
ENDBRANCH 108 109
BRANCH 108 120
ATOM    120  N   UNK A   1      22.964   0.455 -19.989  0.00  0.00    +0.000 NA
ATOM    121  H   UNK A   1      22.638  -0.444 -20.398  0.00  0.00    +0.000 HD
ENDBRANCH 108 120
ENDBRANCH 107 108
ENDBRANCH 104 107
ENDBRANCH 101 102
BRANCH 101 122
ATOM    122  O   UNK A   6      16.288   0.028 -23.168  0.00  0.00    +0.000 OA
BRANCH 122 123
ATOM    123  C   UNK A   6      15.695   1.084 -22.860  0.00  0.00    +0.000 C 
ATOM    124  O   UNK A   6      15.224   1.296 -21.719  0.00  0.00    +0.000 OA
BRANCH 123 125
ATOM    125  C   UNK A   6      15.546   2.159 -23.924  0.00  0.00    +0.000 C 
BRANCH 125 126
ATOM    126  C   UNK A   6      16.687   2.132 -24.962  0.00  0.00    +0.000 C 
BRANCH 126 127
ATOM    127  C   UNK A   6      18.096   2.314 -24.384  0.00  0.00    +0.000 C 
BRANCH 127 128
ATOM    128  C   UNK A   6      19.135   2.252 -25.512  0.00  0.00    +0.000 C 
ATOM    129  O   UNK A   6      19.569   1.168 -25.899  0.00  0.00    +0.000 OA
ATOM    130  N   ALA A   7      19.517   3.413 -26.036  0.00  0.00    +0.000 N 
ATOM    131  H   ALA A   7      19.153   4.294 -25.620  0.00  0.00    +0.000 HD
BRANCH 130 132
ATOM    132  CA  ALA A   7      20.432   3.499 -27.178  0.00  0.00    +0.000 C 
ATOM    133  CB  ALA A   7      20.391   4.906 -27.800  0.00  0.00    +0.000 C 
BRANCH 132 134
ATOM    134  C   ALA A   7      21.872   3.116 -26.852  0.00  0.00    +0.000 C 
ATOM    135  O   ALA A   7      22.535   2.457 -27.655  0.00  0.00    +0.000 OA
ENDBRANCH 132 134
ENDBRANCH 130 132
ENDBRANCH 127 128
BRANCH 127 136
ATOM    136  N   UNK A   6      18.177   3.540 -23.578  0.00  0.00    +0.000 N 
ATOM    137  C   HIS A   5      19.205   3.787 -22.769  0.00  0.00    +0.000 C 
ATOM    138  O   HIS A   5      20.135   2.996 -22.604  0.00  0.00    +0.000 OA
ATOM    139  H   UNK A   6      17.407   4.236 -23.642  0.00  0.00    +0.000 HD
BRANCH 137 140
ATOM    140  CA  HIS A   5      19.207   5.147 -22.064  0.00  0.00    +0.000 C 
BRANCH 140 141
ATOM    141  N   HIS A   5      18.792   6.199 -22.994  0.00  0.00    +0.000 N 
ATOM    142  H   HIS A   5      17.907   6.712 -22.806  0.00  0.00    +0.000 HD
ATOM    143  C   PHE A   4      19.504   6.524 -24.071  0.00  0.00    +0.000 C 
ATOM    144  O   PHE A   4      20.535   5.925 -24.401  0.00  0.00    +0.000 OA
BRANCH 143 145
ATOM    145  CA  PHE A   4      18.974   7.701 -24.906  0.00  0.00    +0.000 C 
BRANCH 145 146
ATOM    146  N   PHE A   4      17.514   7.636 -25.062  0.00  0.00    +0.000 N 
ATOM    147  H   PHE A   4      16.930   8.417 -24.699  0.00  0.00    +0.000 HD
ATOM    148  C   GLY A   3      16.919   6.603 -25.656  0.00  0.00    +0.000 C 
ATOM    149  O   GLY A   3      17.551   5.676 -26.151  0.00  0.00    +0.000 OA
BRANCH 148 150
ATOM    150  CA  GLY A   3      15.395   6.613 -25.700  0.00  0.00    +0.000 C 
BRANCH 150 151
ATOM    151  N   GLY A   3      14.774   7.141 -24.482  0.00  0.00    +0.000 N 
ATOM    152  C   PRO A   2      14.922   6.554 -23.296  0.00  0.00    +0.000 C 
ATOM    153  O   PRO A   2      15.509   5.481 -23.141  0.00  0.00    +0.000 OA
ATOM    154  H   GLY A   3      14.198   8.004 -24.546  0.00  0.00    +0.000 HD
BRANCH 152 155
ATOM    155  CA  PRO A   2      14.328   7.275 -22.081  0.00  0.00    +0.000 C 
ATOM    156  CB  PRO A   2      12.859   6.884 -21.872  0.00  0.00    +0.000 C 
ATOM    157  CG  PRO A   2      12.248   8.109 -21.259  0.00  0.00    +0.000 C 
ATOM    158  CD  PRO A   2      12.901   9.245 -21.978  0.00  0.00    +0.000 C 
ATOM    159  N   PRO A   2      14.263   8.736 -22.233  0.00  0.00    +0.000 N 
ATOM    160  C   UNK A   1      15.408   9.424 -22.422  0.00  0.00    +0.000 C 
ATOM    161  O   UNK A   1      16.503   8.870 -22.489  0.00  0.00    +0.000 OA
BRANCH 160 162
ATOM    162  C   UNK A   1      15.338  10.958 -22.509  0.00  0.00    +0.000 C 
BRANCH 162 163
ATOM    163  N   UNK A   1      16.709  11.488 -22.467  0.00  0.00    +0.000 NA
ATOM    164  H   UNK A   1      17.455  10.979 -22.983  0.00  0.00    +0.000 HD
ENDBRANCH 162 163
BRANCH 162 165
ATOM    165  C   UNK A   1      14.512  11.500 -23.702  0.00  0.00    +0.000 C 
BRANCH 165 166
ATOM    166  C   UNK A   1      14.979  10.987 -25.064  0.00  0.00    +0.000 C 
ATOM    167  O   UNK A   1      15.158   9.788 -25.270  0.00  0.00    +0.000 OA
ATOM    168  N   UNK A   1      15.126  11.904 -26.017  0.00  0.00    +0.000 N 
ATOM    169  H   UNK A   1      14.965  12.909 -25.801  0.00  0.00    +0.000 HD
ATOM    170  H   UNK A   1      15.402  11.616 -26.978  0.00  0.00    +0.000 HD
ENDBRANCH 165 166
ENDBRANCH 162 165
ENDBRANCH 160 162
ENDBRANCH 152 155
ENDBRANCH 150 151
ENDBRANCH 148 150
ENDBRANCH 145 146
BRANCH 145 171
ATOM    171  CB  PHE A   4      19.372   9.022 -24.237  0.00  0.00    +0.000 C 
BRANCH 171 172
ATOM    172  CG  PHE A   4      19.555  10.183 -25.194  0.00  0.00    +0.000 A 
ATOM    173  CD2 PHE A   4      20.789  10.815 -25.295  0.00  0.00    +0.000 A 
ATOM    174  CE2 PHE A   4      20.971  11.906 -26.143  0.00  0.00    +0.000 A 
ATOM    175  CZ  PHE A   4      19.904  12.381 -26.909  0.00  0.00    +0.000 A 
ATOM    176  CE1 PHE A   4      18.658  11.762 -26.815  0.00  0.00    +0.000 A 
ATOM    177  CD1 PHE A   4      18.490  10.670 -25.952  0.00  0.00    +0.000 A 
ENDBRANCH 171 172
ENDBRANCH 145 171
ENDBRANCH 143 145
ENDBRANCH 140 141
BRANCH 140 178
ATOM    178  CB  HIS A   5      18.305   5.130 -20.824  0.00  0.00    +0.000 C 
BRANCH 178 179
ATOM    179  CG  HIS A   5      19.050   5.013 -19.526  0.00  0.00    +0.000 A 
ATOM    180  CD2 HIS A   5      19.106   5.843 -18.456  0.00  0.00    +0.000 A 
ATOM    181  NE2 HIS A   5      19.923   5.250 -17.523  0.00  0.00    +0.000 NA
ATOM    182  CE1 HIS A   5      20.355   4.097 -18.004  0.00  0.00    +0.000 A 
ATOM    183  ND1 HIS A   5      19.842   3.930 -19.210  0.00  0.00    +0.000 NA
ENDBRANCH 178 179
ENDBRANCH 140 178
ENDBRANCH 137 140
ENDBRANCH 127 136
ENDBRANCH 126 127
ENDBRANCH 125 126
ENDBRANCH 123 125
ENDBRANCH 122 123
ENDBRANCH 101 122
ENDBRANCH  98 101
ENDBRANCH  95  96
ENDBRANCH   1  95
TORSDOF 77
REMARK  Name = ../refined-set-2016/2xy9/2xy9_pocket.pdb
REMARK  304 active torsions:
REMARK  status: ('A' for Active; 'I' for Inactive)
REMARK    1  A    between atoms: _1  and  _3
REMARK    2  A    between atoms: _3  and  _4
REMARK    3  A    between atoms: _3  and  _6
REMARK    4  A    between atoms: _6  and  _7
REMARK    5  A    between atoms: _12  and  _14
REMARK    6  A    between atoms: _14  and  _15
REMARK    7  A    between atoms: _14  and  _17
REMARK    8  A    between atoms: _17  and  _18
REMARK    9  A    between atoms: _23  and  _25
REMARK   10  A    between atoms: _25  and  _26
REMARK   11  A    between atoms: _25  and  _28
REMARK   12  A    between atoms: _28  and  _29
REMARK   13  A    between atoms: _29  and  _30
REMARK   14  A    between atoms: _33  and  _35
REMARK   15  A    between atoms: _35  and  _36
REMARK   16  A    between atoms: _35  and  _38
REMARK   17  A    between atoms: _38  and  _39
REMARK   18  A    between atoms: _44  and  _45
REMARK   19  A    between atoms: _47  and  _49
REMARK   20  A    between atoms: _49  and  _50
REMARK   21  A    between atoms: _49  and  _52
REMARK   22  A    between atoms: _52  and  _53
REMARK   23  A    between atoms: _56  and  _58
REMARK   24  A    between atoms: _58  and  _59
REMARK   25  A    between atoms: _61  and  _63
REMARK   26  A    between atoms: _63  and  _64
REMARK   27  A    between atoms: _63  and  _66
REMARK   28  A    between atoms: _66  and  _67
REMARK   29  A    between atoms: _72  and  _74
REMARK   30  A    between atoms: _74  and  _75
REMARK   31  A    between atoms: _74  and  _77
REMARK   32  A    between atoms: _77  and  _78
REMARK   33  A    between atoms: _88  and  _90
REMARK   34  A    between atoms: _90  and  _91
REMARK   35  A    between atoms: _90  and  _93
REMARK   36  A    between atoms: _93  and  _94
REMARK   37  A    between atoms: _94  and  _95
REMARK   38  A    between atoms: _100  and  _102
REMARK   39  A    between atoms: _102  and  _103
REMARK   40  A    between atoms: _102  and  _105
REMARK   41  A    between atoms: _105  and  _106
REMARK   42  A    between atoms: _109  and  _111
REMARK   43  A    between atoms: _111  and  _112
REMARK   44  A    between atoms: _111  and  _114
REMARK   45  A    between atoms: _114  and  _115
REMARK   46  A    between atoms: _125  and  _127
REMARK   47  A    between atoms: _127  and  _128
REMARK   48  A    between atoms: _127  and  _130
REMARK   49  A    between atoms: _130  and  _131
REMARK   50  A    between atoms: _133  and  _135
REMARK   51  A    between atoms: _135  and  _136
REMARK   52  A    between atoms: _135  and  _138
REMARK   53  A    between atoms: _138  and  _139
REMARK   54  A    between atoms: _144  and  _146
REMARK   55  A    between atoms: _146  and  _147
REMARK   56  A    between atoms: _146  and  _149
REMARK   57  A    between atoms: _152  and  _154
REMARK   58  A    between atoms: _154  and  _155
REMARK   59  A    between atoms: _154  and  _157
REMARK   60  A    between atoms: _159  and  _161
REMARK   61  A    between atoms: _161  and  _162
REMARK   62  A    between atoms: _161  and  _164
REMARK   63  A    between atoms: _164  and  _165
REMARK   64  A    between atoms: _170  and  _172
REMARK   65  A    between atoms: _172  and  _173
REMARK   66  A    between atoms: _176  and  _178
REMARK   67  A    between atoms: _178  and  _179
REMARK   68  A    between atoms: _178  and  _181
REMARK   69  A    between atoms: _181  and  _182
REMARK   70  A    between atoms: _184  and  _186
REMARK   71  A    between atoms: _186  and  _187
REMARK   72  A    between atoms: _190  and  _192
REMARK   73  A    between atoms: _192  and  _193
REMARK   74  A    between atoms: _192  and  _195
REMARK   75  A    between atoms: _195  and  _196
REMARK   76  A    between atoms: _206  and  _208
REMARK   77  A    between atoms: _208  and  _209
REMARK   78  A    between atoms: _208  and  _211
REMARK   79  A    between atoms: _211  and  _212
REMARK   80  A    between atoms: _215  and  _217
REMARK   81  A    between atoms: _217  and  _218
REMARK   82  A    between atoms: _217  and  _220
REMARK   83  A    between atoms: _220  and  _221
REMARK   84  A    between atoms: _226  and  _227
REMARK   85  A    between atoms: _229  and  _231
REMARK   86  A    between atoms: _231  and  _232
REMARK   87  A    between atoms: _231  and  _234
REMARK   88  A    between atoms: _234  and  _235
REMARK   89  A    between atoms: _235  and  _236
REMARK   90  A    between atoms: _236  and  _237
REMARK   91  A    between atoms: _246  and  _248
REMARK   92  A    between atoms: _248  and  _249
REMARK   93  A    between atoms: _248  and  _251
REMARK   94  A    between atoms: _251  and  _252
REMARK   95  A    between atoms: _255  and  _257
REMARK   96  A    between atoms: _257  and  _258
REMARK   97  A    between atoms: _257  and  _260
REMARK   98  A    between atoms: _260  and  _261
REMARK   99  A    between atoms: _261  and  _262
REMARK  100  A    between atoms: _262  and  _263
REMARK  101  A    between atoms: _263  and  _264
REMARK  102  A    between atoms: _268  and  _270
REMARK  103  A    between atoms: _270  and  _271
REMARK  104  A    between atoms: _270  and  _273
REMARK  105  A    between atoms: _273  and  _274
REMARK  106  A    between atoms: _274  and  _275
REMARK  107  A    between atoms: _280  and  _282
REMARK  108  A    between atoms: _282  and  _283
REMARK  109  A    between atoms: _282  and  _285
REMARK  110  A    between atoms: _285  and  _286
REMARK  111  A    between atoms: _289  and  _291
REMARK  112  A    between atoms: _291  and  _292
REMARK  113  A    between atoms: _291  and  _294
REMARK  114  A    between atoms: _294  and  _295
REMARK  115  A    between atoms: _295  and  _296
REMARK  116  A    between atoms: _299  and  _301
REMARK  117  A    between atoms: _301  and  _302
REMARK  118  A    between atoms: _301  and  _304
REMARK  119  A    between atoms: _304  and  _305
REMARK  120  A    between atoms: _308  and  _310
REMARK  121  A    between atoms: _310  and  _311
REMARK  122  A    between atoms: _310  and  _313
REMARK  123  A    between atoms: _313  and  _314
REMARK  124  A    between atoms: _317  and  _319
REMARK  125  A    between atoms: _319  and  _320
REMARK  126  A    between atoms: _319  and  _322
REMARK  127  A    between atoms: _325  and  _327
REMARK  128  A    between atoms: _327  and  _328
REMARK  129  A    between atoms: _327  and  _330
REMARK  130  A    between atoms: _333  and  _335
REMARK  131  A    between atoms: _335  and  _336
REMARK  132  A    between atoms: _339  and  _341
REMARK  133  A    between atoms: _341  and  _342
REMARK  134  A    between atoms: _341  and  _344
REMARK  135  A    between atoms: _344  and  _345
REMARK  136  A    between atoms: _350  and  _352
REMARK  137  A    between atoms: _352  and  _353
REMARK  138  A    between atoms: _352  and  _355
REMARK  139  A    between atoms: _355  and  _356
REMARK  140  A    between atoms: _360  and  ZN_772
REMARK  141  A    between atoms: _361  and  _363
REMARK  142  A    between atoms: _363  and  _364
REMARK  143  A    between atoms: _363  and  _366
REMARK  144  A    between atoms: _366  and  _367
REMARK  145  A    between atoms: _367  and  _368
REMARK  146  A    between atoms: _371  and  _373
REMARK  147  A    between atoms: _373  and  _374
REMARK  148  A    between atoms: _373  and  _376
REMARK  149  A    between atoms: _376  and  _377
REMARK  150  A    between atoms: _377  and  _378
REMARK  151  A    between atoms: _380  and  _382
REMARK  152  A    between atoms: _382  and  _383
REMARK  153  A    between atoms: _382  and  _385
REMARK  154  A    between atoms: _385  and  _386
REMARK  155  A    between atoms: _390  and  ZN_772
REMARK  156  A    between atoms: _391  and  _393
REMARK  157  A    between atoms: _393  and  _394
REMARK  158  A    between atoms: _393  and  _396
REMARK  159  A    between atoms: _396  and  _397
REMARK  160  A    between atoms: _400  and  _402
REMARK  161  A    between atoms: _402  and  _403
REMARK  162  A    between atoms: _402  and  _405
REMARK  163  A    between atoms: _405  and  _406
REMARK  164  A    between atoms: _411  and  _412
REMARK  165  A    between atoms: _414  and  _416
REMARK  166  A    between atoms: _416  and  _417
REMARK  167  A    between atoms: _416  and  _419
REMARK  168  A    between atoms: _419  and  _420
REMARK  169  A    between atoms: _426  and  _428
REMARK  170  A    between atoms: _428  and  _429
REMARK  171  A    between atoms: _428  and  _431
REMARK  172  A    between atoms: _431  and  _432
REMARK  173  A    between atoms: _437  and  _438
REMARK  174  A    between atoms: _440  and  _442
REMARK  175  A    between atoms: _442  and  _443
REMARK  176  A    between atoms: _442  and  _445
REMARK  177  A    between atoms: _445  and  _446
REMARK  178  A    between atoms: _446  and  _447
REMARK  179  A    between atoms: _447  and  _448
REMARK  180  A    between atoms: _457  and  _459
REMARK  181  A    between atoms: _459  and  _460
REMARK  182  A    between atoms: _459  and  _462
REMARK  183  A    between atoms: _462  and  _463
REMARK  184  A    between atoms: _463  and  _464
REMARK  185  A    between atoms: _467  and  _469
REMARK  186  A    between atoms: _469  and  _470
REMARK  187  A    between atoms: _472  and  _474
REMARK  188  A    between atoms: _474  and  _475
REMARK  189  A    between atoms: _474  and  _477
REMARK  190  A    between atoms: _477  and  _478
REMARK  191  A    between atoms: _484  and  _485
REMARK  192  A    between atoms: _490  and  _492
REMARK  193  A    between atoms: _492  and  _493
REMARK  194  A    between atoms: _495  and  _497
REMARK  195  A    between atoms: _497  and  _498
REMARK  196  A    between atoms: _497  and  _500
REMARK  197  A    between atoms: _500  and  _501
REMARK  198  A    between atoms: _507  and  _509
REMARK  199  A    between atoms: _509  and  _510
REMARK  200  A    between atoms: _509  and  _512
REMARK  201  A    between atoms: _512  and  _513
REMARK  202  A    between atoms: _518  and  _520
REMARK  203  A    between atoms: _520  and  _521
REMARK  204  A    between atoms: _520  and  _523
REMARK  205  A    between atoms: _523  and  _524
REMARK  206  A    between atoms: _524  and  _525
REMARK  207  A    between atoms: _525  and  _526
REMARK  208  A    between atoms: _526  and  ZN_772
REMARK  209  A    between atoms: _528  and  _530
REMARK  210  A    between atoms: _530  and  _531
REMARK  211  A    between atoms: _534  and  _536
REMARK  212  A    between atoms: _536  and  _537
REMARK  213  A    between atoms: _539  and  _541
REMARK  214  A    between atoms: _541  and  _542
REMARK  215  A    between atoms: _541  and  _544
REMARK  216  A    between atoms: _544  and  _545
REMARK  217  A    between atoms: _548  and  _550
REMARK  218  A    between atoms: _550  and  _551
REMARK  219  A    between atoms: _554  and  _556
REMARK  220  A    between atoms: _556  and  _557
REMARK  221  A    between atoms: _556  and  _559
REMARK  222  A    between atoms: _559  and  _560
REMARK  223  A    between atoms: _563  and  _565
REMARK  224  A    between atoms: _565  and  _566
REMARK  225  A    between atoms: _565  and  _568
REMARK  226  A    between atoms: _568  and  _569
REMARK  227  A    between atoms: _569  and  _570
REMARK  228  A    between atoms: _570  and  _571
REMARK  229  A    between atoms: _571  and  _572
REMARK  230  A    between atoms: _576  and  _578
REMARK  231  A    between atoms: _578  and  _579
REMARK  232  A    between atoms: _578  and  _581
REMARK  233  A    between atoms: _581  and  _582
REMARK  234  A    between atoms: _588  and  _590
REMARK  235  A    between atoms: _590  and  _591
REMARK  236  A    between atoms: _590  and  _593
REMARK  237  A    between atoms: _593  and  _594
REMARK  238  A    between atoms: _600  and  _602
REMARK  239  A    between atoms: _602  and  _603
REMARK  240  A    between atoms: _602  and  _605
REMARK  241  A    between atoms: _605  and  _606
REMARK  242  A    between atoms: _608  and  _610
REMARK  243  A    between atoms: _610  and  _611
REMARK  244  A    between atoms: _610  and  _613
REMARK  245  A    between atoms: _616  and  _618
REMARK  246  A    between atoms: _618  and  _619
REMARK  247  A    between atoms: _618  and  _621
REMARK  248  A    between atoms: _621  and  _622
REMARK  249  A    between atoms: _622  and  _623
REMARK  250  A    between atoms: _623  and  _624
REMARK  251  A    between atoms: _624  and  _625
REMARK  252  A    between atoms: _629  and  _631
REMARK  253  A    between atoms: _631  and  _632
REMARK  254  A    between atoms: _631  and  _634
REMARK  255  A    between atoms: _634  and  _635
REMARK  256  A    between atoms: _641  and  _643
REMARK  257  A    between atoms: _643  and  _644
REMARK  258  A    between atoms: _643  and  _646
REMARK  259  A    between atoms: _646  and  _647
REMARK  260  A    between atoms: _652  and  _654
REMARK  261  A    between atoms: _654  and  _655
REMARK  262  A    between atoms: _654  and  _657
REMARK  263  A    between atoms: _657  and  _658
REMARK  264  A    between atoms: _660  and  _662
REMARK  265  A    between atoms: _662  and  _663
REMARK  266  A    between atoms: _662  and  _665
REMARK  267  A    between atoms: _665  and  _666
REMARK  268  A    between atoms: _668  and  _670
REMARK  269  A    between atoms: _670  and  _671
REMARK  270  A    between atoms: _670  and  _673
REMARK  271  A    between atoms: _677  and  _678
REMARK  272  A    between atoms: _683  and  _685
REMARK  273  A    between atoms: _685  and  _686
REMARK  274  A    between atoms: _685  and  _688
REMARK  275  A    between atoms: _688  and  _689
REMARK  276  A    between atoms: _694  and  _695
REMARK  277  A    between atoms: _697  and  _699
REMARK  278  A    between atoms: _699  and  _700
REMARK  279  A    between atoms: _699  and  _702
REMARK  280  A    between atoms: _702  and  _703
REMARK  281  A    between atoms: _703  and  _704
REMARK  282  A    between atoms: _704  and  _705
REMARK  283  A    between atoms: _714  and  _716
REMARK  284  A    between atoms: _716  and  _717
REMARK  285  A    between atoms: _716  and  _719
REMARK  286  A    between atoms: _719  and  _720
REMARK  287  A    between atoms: _725  and  _726
REMARK  288  A    between atoms: _728  and  _730
REMARK  289  A    between atoms: _730  and  _731
REMARK  290  A    between atoms: _730  and  _733
REMARK  291  A    between atoms: _733  and  _734
REMARK  292  A    between atoms: _740  and  _742
REMARK  293  A    between atoms: _742  and  _743
REMARK  294  A    between atoms: _742  and  _745
REMARK  295  A    between atoms: _745  and  _746
REMARK  296  A    between atoms: _748  and  _750
REMARK  297  A    between atoms: _750  and  _751
REMARK  298  A    between atoms: _750  and  _753
REMARK  299  A    between atoms: _753  and  _754
REMARK  300  A    between atoms: _760  and  _762
REMARK  301  A    between atoms: _762  and  _763
REMARK  302  A    between atoms: _762  and  _765
REMARK  303  A    between atoms: _765  and  _766
REMARK  304  A    between atoms: _766  and  _767
REMARK                            x       y       z     vdW  Elec       q    Type
REMARK                         _______ _______ _______ _____ _____    ______ ____
ROOT
ATOM      1  C   TYR A   1      24.641   5.644 -16.431  0.00  0.00    +0.239 C 
ATOM      2  N   PHE A   2      24.196   4.639 -15.663  0.00  0.00    -0.298 N 
ATOM      3  H   PHE A   2      23.937   3.741 -16.119  0.00  0.00    +0.150 HD
ATOM      4  O   TYR A   1      24.928   6.762 -15.986  0.00  0.00    -0.274 OA
ENDROOT
BRANCH   1   5
ATOM      5  CA  TYR A   1      24.806   5.360 -17.932  0.00  0.00    +0.149 C 
BRANCH   5   6
ATOM      6  N   TYR A   1      25.541   4.121 -18.132  0.00  0.00    -0.238 NA
ATOM      7  H   TYR A   1      25.095   3.356 -18.677  0.00  0.00    +0.142 HD
ENDBRANCH   5   6
BRANCH   5   8
ATOM      8  CB  TYR A   1      23.444   5.278 -18.631  0.00  0.00    +0.053 C 
BRANCH   8   9
ATOM      9  CG  TYR A   1      22.968   6.538 -19.352  0.00  0.00    -0.020 A 
ATOM     10  CD2 TYR A   1      23.131   7.811 -18.794  0.00  0.00    -0.001 A 
ATOM     11  CE2 TYR A   1      22.673   8.961 -19.457  0.00  0.00    +0.036 A 
ATOM     12  CZ  TYR A   1      22.047   8.834 -20.691  0.00  0.00    +0.134 A 
ATOM     13  CE1 TYR A   1      21.870   7.579 -21.257  0.00  0.00    +0.036 A 
ATOM     14  CD1 TYR A   1      22.332   6.446 -20.588  0.00  0.00    -0.001 A 
BRANCH  12  15
ATOM     15  OH  TYR A   1      21.588   9.951 -21.358  0.00  0.00    -0.506 OA
ATOM     16  HH  TYR A   1      21.791  10.760 -20.824  0.00  0.00    +0.292 HD
ENDBRANCH  12  15
ENDBRANCH   8   9
ENDBRANCH   5   8
ENDBRANCH   1   5
BRANCH   2  17
ATOM     17  CA  PHE A   2      24.058   4.752 -14.195  0.00  0.00    +0.141 C 
BRANCH  17  18
ATOM     18  C   PHE A   2      25.337   5.272 -13.540  0.00  0.00    +0.227 C 
ATOM     19  O   PHE A   2      25.301   6.153 -12.661  0.00  0.00    -0.286 OA
ENDBRANCH  17  18
BRANCH  17  20
ATOM     20  CB  PHE A   2      23.760   3.399 -13.526  0.00  0.00    +0.054 C 
BRANCH  20  21
ATOM     21  CG  PHE A   2      22.450   2.768 -13.902  0.00  0.00    -0.020 A 
ATOM     22  CD2 PHE A   2      22.259   1.406 -13.672  0.00  0.00    -0.004 A 
ATOM     23  CE2 PHE A   2      21.058   0.785 -13.994  0.00  0.00    -0.000 A 
ATOM     24  CZ  PHE A   2      20.036   1.526 -14.559  0.00  0.00    -0.000 A 
ATOM     25  CE1 PHE A   2      20.213   2.889 -14.795  0.00  0.00    -0.000 A 
ATOM     26  CD1 PHE A   2      21.414   3.504 -14.464  0.00  0.00    -0.004 A 
ENDBRANCH  20  21
ENDBRANCH  17  20
ENDBRANCH   2  17
TORSDOF 9
REMARK  Name = ../refined-set-2016/2xy9/2xy9_pocket.pdb
REMARK  304 active torsions:
REMARK  status: ('A' for Active; 'I' for Inactive)
REMARK    1  A    between atoms: _1  and  _3
REMARK    2  A    between atoms: _3  and  _4
REMARK    3  A    between atoms: _3  and  _6
REMARK    4  A    between atoms: _6  and  _7
REMARK    5  A    between atoms: _12  and  _14
REMARK    6  A    between atoms: _14  and  _15
REMARK    7  A    between atoms: _14  and  _17
REMARK    8  A    between atoms: _17  and  _18
REMARK    9  A    between atoms: _23  and  _25
REMARK   10  A    between atoms: _25  and  _26
REMARK   11  A    between atoms: _25  and  _28
REMARK   12  A    between atoms: _28  and  _29
REMARK   13  A    between atoms: _29  and  _30
REMARK   14  A    between atoms: _33  and  _35
REMARK   15  A    between atoms: _35  and  _36
REMARK   16  A    between atoms: _35  and  _38
REMARK   17  A    between atoms: _38  and  _39
REMARK   18  A    between atoms: _44  and  _45
REMARK   19  A    between atoms: _47  and  _49
REMARK   20  A    between atoms: _49  and  _50
REMARK   21  A    between atoms: _49  and  _52
REMARK   22  A    between atoms: _52  and  _53
REMARK   23  A    between atoms: _56  and  _58
REMARK   24  A    between atoms: _58  and  _59
REMARK   25  A    between atoms: _61  and  _63
REMARK   26  A    between atoms: _63  and  _64
REMARK   27  A    between atoms: _63  and  _66
REMARK   28  A    between atoms: _66  and  _67
REMARK   29  A    between atoms: _72  and  _74
REMARK   30  A    between atoms: _74  and  _75
REMARK   31  A    between atoms: _74  and  _77
REMARK   32  A    between atoms: _77  and  _78
REMARK   33  A    between atoms: _88  and  _90
REMARK   34  A    between atoms: _90  and  _91
REMARK   35  A    between atoms: _90  and  _93
REMARK   36  A    between atoms: _93  and  _94
REMARK   37  A    between atoms: _94  and  _95
REMARK   38  A    between atoms: _100  and  _102
REMARK   39  A    between atoms: _102  and  _103
REMARK   40  A    between atoms: _102  and  _105
REMARK   41  A    between atoms: _105  and  _106
REMARK   42  A    between atoms: _109  and  _111
REMARK   43  A    between atoms: _111  and  _112
REMARK   44  A    between atoms: _111  and  _114
REMARK   45  A    between atoms: _114  and  _115
REMARK   46  A    between atoms: _125  and  _127
REMARK   47  A    between atoms: _127  and  _128
REMARK   48  A    between atoms: _127  and  _130
REMARK   49  A    between atoms: _130  and  _131
REMARK   50  A    between atoms: _133  and  _135
REMARK   51  A    between atoms: _135  and  _136
REMARK   52  A    between atoms: _135  and  _138
REMARK   53  A    between atoms: _138  and  _139
REMARK   54  A    between atoms: _144  and  _146
REMARK   55  A    between atoms: _146  and  _147
REMARK   56  A    between atoms: _146  and  _149
REMARK   57  A    between atoms: _152  and  _154
REMARK   58  A    between atoms: _154  and  _155
REMARK   59  A    between atoms: _154  and  _157
REMARK   60  A    between atoms: _159  and  _161
REMARK   61  A    between atoms: _161  and  _162
REMARK   62  A    between atoms: _161  and  _164
REMARK   63  A    between atoms: _164  and  _165
REMARK   64  A    between atoms: _170  and  _172
REMARK   65  A    between atoms: _172  and  _173
REMARK   66  A    between atoms: _176  and  _178
REMARK   67  A    between atoms: _178  and  _179
REMARK   68  A    between atoms: _178  and  _181
REMARK   69  A    between atoms: _181  and  _182
REMARK   70  A    between atoms: _184  and  _186
REMARK   71  A    between atoms: _186  and  _187
REMARK   72  A    between atoms: _190  and  _192
REMARK   73  A    between atoms: _192  and  _193
REMARK   74  A    between atoms: _192  and  _195
REMARK   75  A    between atoms: _195  and  _196
REMARK   76  A    between atoms: _206  and  _208
REMARK   77  A    between atoms: _208  and  _209
REMARK   78  A    between atoms: _208  and  _211
REMARK   79  A    between atoms: _211  and  _212
REMARK   80  A    between atoms: _215  and  _217
REMARK   81  A    between atoms: _217  and  _218
REMARK   82  A    between atoms: _217  and  _220
REMARK   83  A    between atoms: _220  and  _221
REMARK   84  A    between atoms: _226  and  _227
REMARK   85  A    between atoms: _229  and  _231
REMARK   86  A    between atoms: _231  and  _232
REMARK   87  A    between atoms: _231  and  _234
REMARK   88  A    between atoms: _234  and  _235
REMARK   89  A    between atoms: _235  and  _236
REMARK   90  A    between atoms: _236  and  _237
REMARK   91  A    between atoms: _246  and  _248
REMARK   92  A    between atoms: _248  and  _249
REMARK   93  A    between atoms: _248  and  _251
REMARK   94  A    between atoms: _251  and  _252
REMARK   95  A    between atoms: _255  and  _257
REMARK   96  A    between atoms: _257  and  _258
REMARK   97  A    between atoms: _257  and  _260
REMARK   98  A    between atoms: _260  and  _261
REMARK   99  A    between atoms: _261  and  _262
REMARK  100  A    between atoms: _262  and  _263
REMARK  101  A    between atoms: _263  and  _264
REMARK  102  A    between atoms: _268  and  _270
REMARK  103  A    between atoms: _270  and  _271
REMARK  104  A    between atoms: _270  and  _273
REMARK  105  A    between atoms: _273  and  _274
REMARK  106  A    between atoms: _274  and  _275
REMARK  107  A    between atoms: _280  and  _282
REMARK  108  A    between atoms: _282  and  _283
REMARK  109  A    between atoms: _282  and  _285
REMARK  110  A    between atoms: _285  and  _286
REMARK  111  A    between atoms: _289  and  _291
REMARK  112  A    between atoms: _291  and  _292
REMARK  113  A    between atoms: _291  and  _294
REMARK  114  A    between atoms: _294  and  _295
REMARK  115  A    between atoms: _295  and  _296
REMARK  116  A    between atoms: _299  and  _301
REMARK  117  A    between atoms: _301  and  _302
REMARK  118  A    between atoms: _301  and  _304
REMARK  119  A    between atoms: _304  and  _305
REMARK  120  A    between atoms: _308  and  _310
REMARK  121  A    between atoms: _310  and  _311
REMARK  122  A    between atoms: _310  and  _313
REMARK  123  A    between atoms: _313  and  _314
REMARK  124  A    between atoms: _317  and  _319
REMARK  125  A    between atoms: _319  and  _320
REMARK  126  A    between atoms: _319  and  _322
REMARK  127  A    between atoms: _325  and  _327
REMARK  128  A    between atoms: _327  and  _328
REMARK  129  A    between atoms: _327  and  _330
REMARK  130  A    between atoms: _333  and  _335
REMARK  131  A    between atoms: _335  and  _336
REMARK  132  A    between atoms: _339  and  _341
REMARK  133  A    between atoms: _341  and  _342
REMARK  134  A    between atoms: _341  and  _344
REMARK  135  A    between atoms: _344  and  _345
REMARK  136  A    between atoms: _350  and  _352
REMARK  137  A    between atoms: _352  and  _353
REMARK  138  A    between atoms: _352  and  _355
REMARK  139  A    between atoms: _355  and  _356
REMARK  140  A    between atoms: _360  and  ZN_772
REMARK  141  A    between atoms: _361  and  _363
REMARK  142  A    between atoms: _363  and  _364
REMARK  143  A    between atoms: _363  and  _366
REMARK  144  A    between atoms: _366  and  _367
REMARK  145  A    between atoms: _367  and  _368
REMARK  146  A    between atoms: _371  and  _373
REMARK  147  A    between atoms: _373  and  _374
REMARK  148  A    between atoms: _373  and  _376
REMARK  149  A    between atoms: _376  and  _377
REMARK  150  A    between atoms: _377  and  _378
REMARK  151  A    between atoms: _380  and  _382
REMARK  152  A    between atoms: _382  and  _383
REMARK  153  A    between atoms: _382  and  _385
REMARK  154  A    between atoms: _385  and  _386
REMARK  155  A    between atoms: _390  and  ZN_772
REMARK  156  A    between atoms: _391  and  _393
REMARK  157  A    between atoms: _393  and  _394
REMARK  158  A    between atoms: _393  and  _396
REMARK  159  A    between atoms: _396  and  _397
REMARK  160  A    between atoms: _400  and  _402
REMARK  161  A    between atoms: _402  and  _403
REMARK  162  A    between atoms: _402  and  _405
REMARK  163  A    between atoms: _405  and  _406
REMARK  164  A    between atoms: _411  and  _412
REMARK  165  A    between atoms: _414  and  _416
REMARK  166  A    between atoms: _416  and  _417
REMARK  167  A    between atoms: _416  and  _419
REMARK  168  A    between atoms: _419  and  _420
REMARK  169  A    between atoms: _426  and  _428
REMARK  170  A    between atoms: _428  and  _429
REMARK  171  A    between atoms: _428  and  _431
REMARK  172  A    between atoms: _431  and  _432
REMARK  173  A    between atoms: _437  and  _438
REMARK  174  A    between atoms: _440  and  _442
REMARK  175  A    between atoms: _442  and  _443
REMARK  176  A    between atoms: _442  and  _445
REMARK  177  A    between atoms: _445  and  _446
REMARK  178  A    between atoms: _446  and  _447
REMARK  179  A    between atoms: _447  and  _448
REMARK  180  A    between atoms: _457  and  _459
REMARK  181  A    between atoms: _459  and  _460
REMARK  182  A    between atoms: _459  and  _462
REMARK  183  A    between atoms: _462  and  _463
REMARK  184  A    between atoms: _463  and  _464
REMARK  185  A    between atoms: _467  and  _469
REMARK  186  A    between atoms: _469  and  _470
REMARK  187  A    between atoms: _472  and  _474
REMARK  188  A    between atoms: _474  and  _475
REMARK  189  A    between atoms: _474  and  _477
REMARK  190  A    between atoms: _477  and  _478
REMARK  191  A    between atoms: _484  and  _485
REMARK  192  A    between atoms: _490  and  _492
REMARK  193  A    between atoms: _492  and  _493
REMARK  194  A    between atoms: _495  and  _497
REMARK  195  A    between atoms: _497  and  _498
REMARK  196  A    between atoms: _497  and  _500
REMARK  197  A    between atoms: _500  and  _501
REMARK  198  A    between atoms: _507  and  _509
REMARK  199  A    between atoms: _509  and  _510
REMARK  200  A    between atoms: _509  and  _512
REMARK  201  A    between atoms: _512  and  _513
REMARK  202  A    between atoms: _518  and  _520
REMARK  203  A    between atoms: _520  and  _521
REMARK  204  A    between atoms: _520  and  _523
REMARK  205  A    between atoms: _523  and  _524
REMARK  206  A    between atoms: _524  and  _525
REMARK  207  A    between atoms: _525  and  _526
REMARK  208  A    between atoms: _526  and  ZN_772
REMARK  209  A    between atoms: _528  and  _530
REMARK  210  A    between atoms: _530  and  _531
REMARK  211  A    between atoms: _534  and  _536
REMARK  212  A    between atoms: _536  and  _537
REMARK  213  A    between atoms: _539  and  _541
REMARK  214  A    between atoms: _541  and  _542
REMARK  215  A    between atoms: _541  and  _544
REMARK  216  A    between atoms: _544  and  _545
REMARK  217  A    between atoms: _548  and  _550
REMARK  218  A    between atoms: _550  and  _551
REMARK  219  A    between atoms: _554  and  _556
REMARK  220  A    between atoms: _556  and  _557
REMARK  221  A    between atoms: _556  and  _559
REMARK  222  A    between atoms: _559  and  _560
REMARK  223  A    between atoms: _563  and  _565
REMARK  224  A    between atoms: _565  and  _566
REMARK  225  A    between atoms: _565  and  _568
REMARK  226  A    between atoms: _568  and  _569
REMARK  227  A    between atoms: _569  and  _570
REMARK  228  A    between atoms: _570  and  _571
REMARK  229  A    between atoms: _571  and  _572
REMARK  230  A    between atoms: _576  and  _578
REMARK  231  A    between atoms: _578  and  _579
REMARK  232  A    between atoms: _578  and  _581
REMARK  233  A    between atoms: _581  and  _582
REMARK  234  A    between atoms: _588  and  _590
REMARK  235  A    between atoms: _590  and  _591
REMARK  236  A    between atoms: _590  and  _593
REMARK  237  A    between atoms: _593  and  _594
REMARK  238  A    between atoms: _600  and  _602
REMARK  239  A    between atoms: _602  and  _603
REMARK  240  A    between atoms: _602  and  _605
REMARK  241  A    between atoms: _605  and  _606
REMARK  242  A    between atoms: _608  and  _610
REMARK  243  A    between atoms: _610  and  _611
REMARK  244  A    between atoms: _610  and  _613
REMARK  245  A    between atoms: _616  and  _618
REMARK  246  A    between atoms: _618  and  _619
REMARK  247  A    between atoms: _618  and  _621
REMARK  248  A    between atoms: _621  and  _622
REMARK  249  A    between atoms: _622  and  _623
REMARK  250  A    between atoms: _623  and  _624
REMARK  251  A    between atoms: _624  and  _625
REMARK  252  A    between atoms: _629  and  _631
REMARK  253  A    between atoms: _631  and  _632
REMARK  254  A    between atoms: _631  and  _634
REMARK  255  A    between atoms: _634  and  _635
REMARK  256  A    between atoms: _641  and  _643
REMARK  257  A    between atoms: _643  and  _644
REMARK  258  A    between atoms: _643  and  _646
REMARK  259  A    between atoms: _646  and  _647
REMARK  260  A    between atoms: _652  and  _654
REMARK  261  A    between atoms: _654  and  _655
REMARK  262  A    between atoms: _654  and  _657
REMARK  263  A    between atoms: _657  and  _658
REMARK  264  A    between atoms: _660  and  _662
REMARK  265  A    between atoms: _662  and  _663
REMARK  266  A    between atoms: _662  and  _665
REMARK  267  A    between atoms: _665  and  _666
REMARK  268  A    between atoms: _668  and  _670
REMARK  269  A    between atoms: _670  and  _671
REMARK  270  A    between atoms: _670  and  _673
REMARK  271  A    between atoms: _677  and  _678
REMARK  272  A    between atoms: _683  and  _685
REMARK  273  A    between atoms: _685  and  _686
REMARK  274  A    between atoms: _685  and  _688
REMARK  275  A    between atoms: _688  and  _689
REMARK  276  A    between atoms: _694  and  _695
REMARK  277  A    between atoms: _697  and  _699
REMARK  278  A    between atoms: _699  and  _700
REMARK  279  A    between atoms: _699  and  _702
REMARK  280  A    between atoms: _702  and  _703
REMARK  281  A    between atoms: _703  and  _704
REMARK  282  A    between atoms: _704  and  _705
REMARK  283  A    between atoms: _714  and  _716
REMARK  284  A    between atoms: _716  and  _717
REMARK  285  A    between atoms: _716  and  _719
REMARK  286  A    between atoms: _719  and  _720
REMARK  287  A    between atoms: _725  and  _726
REMARK  288  A    between atoms: _728  and  _730
REMARK  289  A    between atoms: _730  and  _731
REMARK  290  A    between atoms: _730  and  _733
REMARK  291  A    between atoms: _733  and  _734
REMARK  292  A    between atoms: _740  and  _742
REMARK  293  A    between atoms: _742  and  _743
REMARK  294  A    between atoms: _742  and  _745
REMARK  295  A    between atoms: _745  and  _746
REMARK  296  A    between atoms: _748  and  _750
REMARK  297  A    between atoms: _750  and  _751
REMARK  298  A    between atoms: _750  and  _753
REMARK  299  A    between atoms: _753  and  _754
REMARK  300  A    between atoms: _760  and  _762
REMARK  301  A    between atoms: _762  and  _763
REMARK  302  A    between atoms: _762  and  _765
REMARK  303  A    between atoms: _765  and  _766
REMARK  304  A    between atoms: _766  and  _767
REMARK                            x       y       z     vdW  Elec       q    Type
REMARK                         _______ _______ _______ _____ _____    ______ ____
ROOT
ATOM      1  CG  TYR A   1      23.256   9.410 -14.630  0.00  0.00    -0.020 A 
ATOM      2  CD2 TYR A   1      22.918   8.613 -13.528  0.00  0.00    -0.001 A 
ATOM      3  CE2 TYR A   1      21.927   7.619 -13.629  0.00  0.00    +0.036 A 
ATOM      4  CZ  TYR A   1      21.250   7.442 -14.838  0.00  0.00    +0.134 A 
ATOM      5  CE1 TYR A   1      21.558   8.232 -15.927  0.00  0.00    +0.036 A 
ATOM      6  CD1 TYR A   1      22.550   9.214 -15.816  0.00  0.00    -0.001 A 
ENDROOT
BRANCH   4   7
ATOM      7  OH  TYR A   1      20.265   6.484 -14.966  0.00  0.00    -0.506 OA
ATOM      8  HH  TYR A   1      20.160   6.003 -14.107  0.00  0.00    +0.292 HD
ENDBRANCH   4   7
BRANCH   1   9
ATOM      9  CB  TYR A   1      24.305  10.518 -14.541  0.00  0.00    +0.051 C 
BRANCH   9  10
ATOM     10  CA  TYR A   1      25.621  10.216 -13.800  0.00  0.00    +0.137 C 
BRANCH  10  11
ATOM     11  N   TYR A   1      26.361   9.141 -14.454  0.00  0.00    -0.239 NA
ATOM     12  H   TYR A   1      25.881   8.242 -14.659  0.00  0.00    +0.142 HD
ENDBRANCH  10  11
BRANCH  10  13
ATOM     13  C   TYR A   1      25.405  10.022 -12.290  0.00  0.00    +0.224 C 
ATOM     14  O   TYR A   1      24.573  10.706 -11.676  0.00  0.00    -0.287 OA
ENDBRANCH  10  13
ENDBRANCH   9  10
ENDBRANCH   1   9
TORSDOF 5
REMARK  Name = ../refined-set-2016/2xy9/2xy9_pocket.pdb
REMARK  304 active torsions:
REMARK  status: ('A' for Active; 'I' for Inactive)
REMARK    1  A    between atoms: _1  and  _3
REMARK    2  A    between atoms: _3  and  _4
REMARK    3  A    between atoms: _3  and  _6
REMARK    4  A    between atoms: _6  and  _7
REMARK    5  A    between atoms: _12  and  _14
REMARK    6  A    between atoms: _14  and  _15
REMARK    7  A    between atoms: _14  and  _17
REMARK    8  A    between atoms: _17  and  _18
REMARK    9  A    between atoms: _23  and  _25
REMARK   10  A    between atoms: _25  and  _26
REMARK   11  A    between atoms: _25  and  _28
REMARK   12  A    between atoms: _28  and  _29
REMARK   13  A    between atoms: _29  and  _30
REMARK   14  A    between atoms: _33  and  _35
REMARK   15  A    between atoms: _35  and  _36
REMARK   16  A    between atoms: _35  and  _38
REMARK   17  A    between atoms: _38  and  _39
REMARK   18  A    between atoms: _44  and  _45
REMARK   19  A    between atoms: _47  and  _49
REMARK   20  A    between atoms: _49  and  _50
REMARK   21  A    between atoms: _49  and  _52
REMARK   22  A    between atoms: _52  and  _53
REMARK   23  A    between atoms: _56  and  _58
REMARK   24  A    between atoms: _58  and  _59
REMARK   25  A    between atoms: _61  and  _63
REMARK   26  A    between atoms: _63  and  _64
REMARK   27  A    between atoms: _63  and  _66
REMARK   28  A    between atoms: _66  and  _67
REMARK   29  A    between atoms: _72  and  _74
REMARK   30  A    between atoms: _74  and  _75
REMARK   31  A    between atoms: _74  and  _77
REMARK   32  A    between atoms: _77  and  _78
REMARK   33  A    between atoms: _88  and  _90
REMARK   34  A    between atoms: _90  and  _91
REMARK   35  A    between atoms: _90  and  _93
REMARK   36  A    between atoms: _93  and  _94
REMARK   37  A    between atoms: _94  and  _95
REMARK   38  A    between atoms: _100  and  _102
REMARK   39  A    between atoms: _102  and  _103
REMARK   40  A    between atoms: _102  and  _105
REMARK   41  A    between atoms: _105  and  _106
REMARK   42  A    between atoms: _109  and  _111
REMARK   43  A    between atoms: _111  and  _112
REMARK   44  A    between atoms: _111  and  _114
REMARK   45  A    between atoms: _114  and  _115
REMARK   46  A    between atoms: _125  and  _127
REMARK   47  A    between atoms: _127  and  _128
REMARK   48  A    between atoms: _127  and  _130
REMARK   49  A    between atoms: _130  and  _131
REMARK   50  A    between atoms: _133  and  _135
REMARK   51  A    between atoms: _135  and  _136
REMARK   52  A    between atoms: _135  and  _138
REMARK   53  A    between atoms: _138  and  _139
REMARK   54  A    between atoms: _144  and  _146
REMARK   55  A    between atoms: _146  and  _147
REMARK   56  A    between atoms: _146  and  _149
REMARK   57  A    between atoms: _152  and  _154
REMARK   58  A    between atoms: _154  and  _155
REMARK   59  A    between atoms: _154  and  _157
REMARK   60  A    between atoms: _159  and  _161
REMARK   61  A    between atoms: _161  and  _162
REMARK   62  A    between atoms: _161  and  _164
REMARK   63  A    between atoms: _164  and  _165
REMARK   64  A    between atoms: _170  and  _172
REMARK   65  A    between atoms: _172  and  _173
REMARK   66  A    between atoms: _176  and  _178
REMARK   67  A    between atoms: _178  and  _179
REMARK   68  A    between atoms: _178  and  _181
REMARK   69  A    between atoms: _181  and  _182
REMARK   70  A    between atoms: _184  and  _186
REMARK   71  A    between atoms: _186  and  _187
REMARK   72  A    between atoms: _190  and  _192
REMARK   73  A    between atoms: _192  and  _193
REMARK   74  A    between atoms: _192  and  _195
REMARK   75  A    between atoms: _195  and  _196
REMARK   76  A    between atoms: _206  and  _208
REMARK   77  A    between atoms: _208  and  _209
REMARK   78  A    between atoms: _208  and  _211
REMARK   79  A    between atoms: _211  and  _212
REMARK   80  A    between atoms: _215  and  _217
REMARK   81  A    between atoms: _217  and  _218
REMARK   82  A    between atoms: _217  and  _220
REMARK   83  A    between atoms: _220  and  _221
REMARK   84  A    between atoms: _226  and  _227
REMARK   85  A    between atoms: _229  and  _231
REMARK   86  A    between atoms: _231  and  _232
REMARK   87  A    between atoms: _231  and  _234
REMARK   88  A    between atoms: _234  and  _235
REMARK   89  A    between atoms: _235  and  _236
REMARK   90  A    between atoms: _236  and  _237
REMARK   91  A    between atoms: _246  and  _248
REMARK   92  A    between atoms: _248  and  _249
REMARK   93  A    between atoms: _248  and  _251
REMARK   94  A    between atoms: _251  and  _252
REMARK   95  A    between atoms: _255  and  _257
REMARK   96  A    between atoms: _257  and  _258
REMARK   97  A    between atoms: _257  and  _260
REMARK   98  A    between atoms: _260  and  _261
REMARK   99  A    between atoms: _261  and  _262
REMARK  100  A    between atoms: _262  and  _263
REMARK  101  A    between atoms: _263  and  _264
REMARK  102  A    between atoms: _268  and  _270
REMARK  103  A    between atoms: _270  and  _271
REMARK  104  A    between atoms: _270  and  _273
REMARK  105  A    between atoms: _273  and  _274
REMARK  106  A    between atoms: _274  and  _275
REMARK  107  A    between atoms: _280  and  _282
REMARK  108  A    between atoms: _282  and  _283
REMARK  109  A    between atoms: _282  and  _285
REMARK  110  A    between atoms: _285  and  _286
REMARK  111  A    between atoms: _289  and  _291
REMARK  112  A    between atoms: _291  and  _292
REMARK  113  A    between atoms: _291  and  _294
REMARK  114  A    between atoms: _294  and  _295
REMARK  115  A    between atoms: _295  and  _296
REMARK  116  A    between atoms: _299  and  _301
REMARK  117  A    between atoms: _301  and  _302
REMARK  118  A    between atoms: _301  and  _304
REMARK  119  A    between atoms: _304  and  _305
REMARK  120  A    between atoms: _308  and  _310
REMARK  121  A    between atoms: _310  and  _311
REMARK  122  A    between atoms: _310  and  _313
REMARK  123  A    between atoms: _313  and  _314
REMARK  124  A    between atoms: _317  and  _319
REMARK  125  A    between atoms: _319  and  _320
REMARK  126  A    between atoms: _319  and  _322
REMARK  127  A    between atoms: _325  and  _327
REMARK  128  A    between atoms: _327  and  _328
REMARK  129  A    between atoms: _327  and  _330
REMARK  130  A    between atoms: _333  and  _335
REMARK  131  A    between atoms: _335  and  _336
REMARK  132  A    between atoms: _339  and  _341
REMARK  133  A    between atoms: _341  and  _342
REMARK  134  A    between atoms: _341  and  _344
REMARK  135  A    between atoms: _344  and  _345
REMARK  136  A    between atoms: _350  and  _352
REMARK  137  A    between atoms: _352  and  _353
REMARK  138  A    between atoms: _352  and  _355
REMARK  139  A    between atoms: _355  and  _356
REMARK  140  A    between atoms: _360  and  ZN_772
REMARK  141  A    between atoms: _361  and  _363
REMARK  142  A    between atoms: _363  and  _364
REMARK  143  A    between atoms: _363  and  _366
REMARK  144  A    between atoms: _366  and  _367
REMARK  145  A    between atoms: _367  and  _368
REMARK  146  A    between atoms: _371  and  _373
REMARK  147  A    between atoms: _373  and  _374
REMARK  148  A    between atoms: _373  and  _376
REMARK  149  A    between atoms: _376  and  _377
REMARK  150  A    between atoms: _377  and  _378
REMARK  151  A    between atoms: _380  and  _382
REMARK  152  A    between atoms: _382  and  _383
REMARK  153  A    between atoms: _382  and  _385
REMARK  154  A    between atoms: _385  and  _386
REMARK  155  A    between atoms: _390  and  ZN_772
REMARK  156  A    between atoms: _391  and  _393
REMARK  157  A    between atoms: _393  and  _394
REMARK  158  A    between atoms: _393  and  _396
REMARK  159  A    between atoms: _396  and  _397
REMARK  160  A    between atoms: _400  and  _402
REMARK  161  A    between atoms: _402  and  _403
REMARK  162  A    between atoms: _402  and  _405
REMARK  163  A    between atoms: _405  and  _406
REMARK  164  A    between atoms: _411  and  _412
REMARK  165  A    between atoms: _414  and  _416
REMARK  166  A    between atoms: _416  and  _417
REMARK  167  A    between atoms: _416  and  _419
REMARK  168  A    between atoms: _419  and  _420
REMARK  169  A    between atoms: _426  and  _428
REMARK  170  A    between atoms: _428  and  _429
REMARK  171  A    between atoms: _428  and  _431
REMARK  172  A    between atoms: _431  and  _432
REMARK  173  A    between atoms: _437  and  _438
REMARK  174  A    between atoms: _440  and  _442
REMARK  175  A    between atoms: _442  and  _443
REMARK  176  A    between atoms: _442  and  _445
REMARK  177  A    between atoms: _445  and  _446
REMARK  178  A    between atoms: _446  and  _447
REMARK  179  A    between atoms: _447  and  _448
REMARK  180  A    between atoms: _457  and  _459
REMARK  181  A    between atoms: _459  and  _460
REMARK  182  A    between atoms: _459  and  _462
REMARK  183  A    between atoms: _462  and  _463
REMARK  184  A    between atoms: _463  and  _464
REMARK  185  A    between atoms: _467  and  _469
REMARK  186  A    between atoms: _469  and  _470
REMARK  187  A    between atoms: _472  and  _474
REMARK  188  A    between atoms: _474  and  _475
REMARK  189  A    between atoms: _474  and  _477
REMARK  190  A    between atoms: _477  and  _478
REMARK  191  A    between atoms: _484  and  _485
REMARK  192  A    between atoms: _490  and  _492
REMARK  193  A    between atoms: _492  and  _493
REMARK  194  A    between atoms: _495  and  _497
REMARK  195  A    between atoms: _497  and  _498
REMARK  196  A    between atoms: _497  and  _500
REMARK  197  A    between atoms: _500  and  _501
REMARK  198  A    between atoms: _507  and  _509
REMARK  199  A    between atoms: _509  and  _510
REMARK  200  A    between atoms: _509  and  _512
REMARK  201  A    between atoms: _512  and  _513
REMARK  202  A    between atoms: _518  and  _520
REMARK  203  A    between atoms: _520  and  _521
REMARK  204  A    between atoms: _520  and  _523
REMARK  205  A    between atoms: _523  and  _524
REMARK  206  A    between atoms: _524  and  _525
REMARK  207  A    between atoms: _525  and  _526
REMARK  208  A    between atoms: _526  and  ZN_772
REMARK  209  A    between atoms: _528  and  _530
REMARK  210  A    between atoms: _530  and  _531
REMARK  211  A    between atoms: _534  and  _536
REMARK  212  A    between atoms: _536  and  _537
REMARK  213  A    between atoms: _539  and  _541
REMARK  214  A    between atoms: _541  and  _542
REMARK  215  A    between atoms: _541  and  _544
REMARK  216  A    between atoms: _544  and  _545
REMARK  217  A    between atoms: _548  and  _550
REMARK  218  A    between atoms: _550  and  _551
REMARK  219  A    between atoms: _554  and  _556
REMARK  220  A    between atoms: _556  and  _557
REMARK  221  A    between atoms: _556  and  _559
REMARK  222  A    between atoms: _559  and  _560
REMARK  223  A    between atoms: _563  and  _565
REMARK  224  A    between atoms: _565  and  _566
REMARK  225  A    between atoms: _565  and  _568
REMARK  226  A    between atoms: _568  and  _569
REMARK  227  A    between atoms: _569  and  _570
REMARK  228  A    between atoms: _570  and  _571
REMARK  229  A    between atoms: _571  and  _572
REMARK  230  A    between atoms: _576  and  _578
REMARK  231  A    between atoms: _578  and  _579
REMARK  232  A    between atoms: _578  and  _581
REMARK  233  A    between atoms: _581  and  _582
REMARK  234  A    between atoms: _588  and  _590
REMARK  235  A    between atoms: _590  and  _591
REMARK  236  A    between atoms: _590  and  _593
REMARK  237  A    between atoms: _593  and  _594
REMARK  238  A    between atoms: _600  and  _602
REMARK  239  A    between atoms: _602  and  _603
REMARK  240  A    between atoms: _602  and  _605
REMARK  241  A    between atoms: _605  and  _606
REMARK  242  A    between atoms: _608  and  _610
REMARK  243  A    between atoms: _610  and  _611
REMARK  244  A    between atoms: _610  and  _613
REMARK  245  A    between atoms: _616  and  _618
REMARK  246  A    between atoms: _618  and  _619
REMARK  247  A    between atoms: _618  and  _621
REMARK  248  A    between atoms: _621  and  _622
REMARK  249  A    between atoms: _622  and  _623
REMARK  250  A    between atoms: _623  and  _624
REMARK  251  A    between atoms: _624  and  _625
REMARK  252  A    between atoms: _629  and  _631
REMARK  253  A    between atoms: _631  and  _632
REMARK  254  A    between atoms: _631  and  _634
REMARK  255  A    between atoms: _634  and  _635
REMARK  256  A    between atoms: _641  and  _643
REMARK  257  A    between atoms: _643  and  _644
REMARK  258  A    between atoms: _643  and  _646
REMARK  259  A    between atoms: _646  and  _647
REMARK  260  A    between atoms: _652  and  _654
REMARK  261  A    between atoms: _654  and  _655
REMARK  262  A    between atoms: _654  and  _657
REMARK  263  A    between atoms: _657  and  _658
REMARK  264  A    between atoms: _660  and  _662
REMARK  265  A    between atoms: _662  and  _663
REMARK  266  A    between atoms: _662  and  _665
REMARK  267  A    between atoms: _665  and  _666
REMARK  268  A    between atoms: _668  and  _670
REMARK  269  A    between atoms: _670  and  _671
REMARK  270  A    between atoms: _670  and  _673
REMARK  271  A    between atoms: _677  and  _678
REMARK  272  A    between atoms: _683  and  _685
REMARK  273  A    between atoms: _685  and  _686
REMARK  274  A    between atoms: _685  and  _688
REMARK  275  A    between atoms: _688  and  _689
REMARK  276  A    between atoms: _694  and  _695
REMARK  277  A    between atoms: _697  and  _699
REMARK  278  A    between atoms: _699  and  _700
REMARK  279  A    between atoms: _699  and  _702
REMARK  280  A    between atoms: _702  and  _703
REMARK  281  A    between atoms: _703  and  _704
REMARK  282  A    between atoms: _704  and  _705
REMARK  283  A    between atoms: _714  and  _716
REMARK  284  A    between atoms: _716  and  _717
REMARK  285  A    between atoms: _716  and  _719
REMARK  286  A    between atoms: _719  and  _720
REMARK  287  A    between atoms: _725  and  _726
REMARK  288  A    between atoms: _728  and  _730
REMARK  289  A    between atoms: _730  and  _731
REMARK  290  A    between atoms: _730  and  _733
REMARK  291  A    between atoms: _733  and  _734
REMARK  292  A    between atoms: _740  and  _742
REMARK  293  A    between atoms: _742  and  _743
REMARK  294  A    between atoms: _742  and  _745
REMARK  295  A    between atoms: _745  and  _746
REMARK  296  A    between atoms: _748  and  _750
REMARK  297  A    between atoms: _750  and  _751
REMARK  298  A    between atoms: _750  and  _753
REMARK  299  A    between atoms: _753  and  _754
REMARK  300  A    between atoms: _760  and  _762
REMARK  301  A    between atoms: _762  and  _763
REMARK  302  A    between atoms: _762  and  _765
REMARK  303  A    between atoms: _765  and  _766
REMARK  304  A    between atoms: _766  and  _767
REMARK                            x       y       z     vdW  Elec       q    Type
REMARK                         _______ _______ _______ _____ _____    ______ ____
ROOT
ATOM      1  C   ARG A   1      18.887   9.366 -13.324  0.00  0.00    +0.238 C 
ATOM      2  O   ARG A   1      18.414   8.277 -12.965  0.00  0.00    -0.274 OA
ATOM      3  N   GLU A   2      18.673   9.896 -14.525  0.00  0.00    -0.297 N 
ATOM      4  H   GLU A   2      18.932  10.891 -14.680  0.00  0.00    +0.150 HD
ENDROOT
BRANCH   1   5
ATOM      5  CA  ARG A   1      19.747  10.217 -12.381  0.00  0.00    +0.145 C 
BRANCH   5   6
ATOM      6  N   ARG A   1      19.113  11.500 -12.063  0.00  0.00    -0.238 NA
ATOM      7  H   ARG A   1      18.573  11.585 -11.178  0.00  0.00    +0.142 HD
ENDBRANCH   5   6
BRANCH   5   8
ATOM      8  CB  ARG A   1      20.092   9.445 -11.105  0.00  0.00    +0.030 C 
BRANCH   8   9
ATOM      9  CG  ARG A   1      21.239  10.050 -10.326  0.00  0.00    +0.045 C 
BRANCH   9  10
ATOM     10  CD  ARG A   1      21.620   9.187  -9.145  0.00  0.00    +0.174 C 
BRANCH  10  11
ATOM     11  NE  ARG A   1      22.171  10.002  -8.068  0.00  0.00    -0.265 N 
ATOM     12  CZ  ARG A   1      22.547   9.537  -6.882  0.00  0.00    +0.342 C 
ATOM     13  NH2 ARG A   1      23.031  10.375  -5.975  0.00  0.00    -0.292 N 
ATOM     14 HH21 ARG A   1      23.328  10.019  -5.044  0.00  0.00    +0.255 HD
ATOM     15 HH22 ARG A   1      23.114  11.388  -6.195  0.00  0.00    +0.255 HD
ATOM     16  NH1 ARG A   1      22.453   8.242  -6.604  0.00  0.00    -0.292 N 
ATOM     17 HH11 ARG A   1      22.750   7.887  -5.673  0.00  0.00    +0.255 HD
ATOM     18 HH12 ARG A   1      22.082   7.582  -7.318  0.00  0.00    +0.255 HD
ATOM     19  HE  ARG A   1      22.277  11.022  -8.241  0.00  0.00    +0.259 HD
ENDBRANCH  10  11
ENDBRANCH   9  10
ENDBRANCH   8   9
ENDBRANCH   5   8
ENDBRANCH   1   5
BRANCH   3  20
ATOM     20  CA  GLU A   2      18.091   9.148 -15.638  0.00  0.00    +0.149 C 
BRANCH  20  21
ATOM     21  C   GLU A   2      18.639   9.710 -16.955  0.00  0.00    +0.241 C 
ATOM     22  O   GLU A   2      19.398  10.680 -16.944  0.00  0.00    -0.273 OA
ATOM     23  N   GLY A   3      18.260   9.108 -18.078  0.00  0.00    -0.296 N 
ATOM     24  H   GLY A   3      17.561   8.340 -18.028  0.00  0.00    +0.150 HD
BRANCH  23  25
ATOM     25  CA  GLY A   3      18.799   9.495 -19.385  0.00  0.00    +0.163 C 
BRANCH  25  26
ATOM     26  C   GLY A   3      18.304  10.855 -19.838  0.00  0.00    +0.229 C 
ATOM     27  O   GLY A   3      17.321  11.370 -19.300  0.00  0.00    -0.286 OA
ENDBRANCH  25  26
ENDBRANCH  23  25
ENDBRANCH  20  21
BRANCH  20  28
ATOM     28  CB  GLU A   2      16.552   9.169 -15.594  0.00  0.00    +0.041 C 
BRANCH  28  29
ATOM     29  CG  GLU A   2      15.921  10.551 -15.483  0.00  0.00    +0.116 C 
BRANCH  29  30
ATOM     30  CD  GLU A   2      14.397  10.518 -15.523  0.00  0.00    +0.365 C 
ATOM     31  OE2 GLU A   2      13.811   9.422 -15.381  0.00  0.00    -0.246 OA
ATOM     32  OE1 GLU A   2      13.783  11.597 -15.705  0.00  0.00    -0.246 OA
ENDBRANCH  29  30
ENDBRANCH  28  29
ENDBRANCH  20  28
ENDBRANCH   3  20
TORSDOF 13
REMARK  Name = ../refined-set-2016/2xy9/2xy9_pocket.pdb
REMARK  304 active torsions:
REMARK  status: ('A' for Active; 'I' for Inactive)
REMARK    1  A    between atoms: _1  and  _3
REMARK    2  A    between atoms: _3  and  _4
REMARK    3  A    between atoms: _3  and  _6
REMARK    4  A    between atoms: _6  and  _7
REMARK    5  A    between atoms: _12  and  _14
REMARK    6  A    between atoms: _14  and  _15
REMARK    7  A    between atoms: _14  and  _17
REMARK    8  A    between atoms: _17  and  _18
REMARK    9  A    between atoms: _23  and  _25
REMARK   10  A    between atoms: _25  and  _26
REMARK   11  A    between atoms: _25  and  _28
REMARK   12  A    between atoms: _28  and  _29
REMARK   13  A    between atoms: _29  and  _30
REMARK   14  A    between atoms: _33  and  _35
REMARK   15  A    between atoms: _35  and  _36
REMARK   16  A    between atoms: _35  and  _38
REMARK   17  A    between atoms: _38  and  _39
REMARK   18  A    between atoms: _44  and  _45
REMARK   19  A    between atoms: _47  and  _49
REMARK   20  A    between atoms: _49  and  _50
REMARK   21  A    between atoms: _49  and  _52
REMARK   22  A    between atoms: _52  and  _53
REMARK   23  A    between atoms: _56  and  _58
REMARK   24  A    between atoms: _58  and  _59
REMARK   25  A    between atoms: _61  and  _63
REMARK   26  A    between atoms: _63  and  _64
REMARK   27  A    between atoms: _63  and  _66
REMARK   28  A    between atoms: _66  and  _67
REMARK   29  A    between atoms: _72  and  _74
REMARK   30  A    between atoms: _74  and  _75
REMARK   31  A    between atoms: _74  and  _77
REMARK   32  A    between atoms: _77  and  _78
REMARK   33  A    between atoms: _88  and  _90
REMARK   34  A    between atoms: _90  and  _91
REMARK   35  A    between atoms: _90  and  _93
REMARK   36  A    between atoms: _93  and  _94
REMARK   37  A    between atoms: _94  and  _95
REMARK   38  A    between atoms: _100  and  _102
REMARK   39  A    between atoms: _102  and  _103
REMARK   40  A    between atoms: _102  and  _105
REMARK   41  A    between atoms: _105  and  _106
REMARK   42  A    between atoms: _109  and  _111
REMARK   43  A    between atoms: _111  and  _112
REMARK   44  A    between atoms: _111  and  _114
REMARK   45  A    between atoms: _114  and  _115
REMARK   46  A    between atoms: _125  and  _127
REMARK   47  A    between atoms: _127  and  _128
REMARK   48  A    between atoms: _127  and  _130
REMARK   49  A    between atoms: _130  and  _131
REMARK   50  A    between atoms: _133  and  _135
REMARK   51  A    between atoms: _135  and  _136
REMARK   52  A    between atoms: _135  and  _138
REMARK   53  A    between atoms: _138  and  _139
REMARK   54  A    between atoms: _144  and  _146
REMARK   55  A    between atoms: _146  and  _147
REMARK   56  A    between atoms: _146  and  _149
REMARK   57  A    between atoms: _152  and  _154
REMARK   58  A    between atoms: _154  and  _155
REMARK   59  A    between atoms: _154  and  _157
REMARK   60  A    between atoms: _159  and  _161
REMARK   61  A    between atoms: _161  and  _162
REMARK   62  A    between atoms: _161  and  _164
REMARK   63  A    between atoms: _164  and  _165
REMARK   64  A    between atoms: _170  and  _172
REMARK   65  A    between atoms: _172  and  _173
REMARK   66  A    between atoms: _176  and  _178
REMARK   67  A    between atoms: _178  and  _179
REMARK   68  A    between atoms: _178  and  _181
REMARK   69  A    between atoms: _181  and  _182
REMARK   70  A    between atoms: _184  and  _186
REMARK   71  A    between atoms: _186  and  _187
REMARK   72  A    between atoms: _190  and  _192
REMARK   73  A    between atoms: _192  and  _193
REMARK   74  A    between atoms: _192  and  _195
REMARK   75  A    between atoms: _195  and  _196
REMARK   76  A    between atoms: _206  and  _208
REMARK   77  A    between atoms: _208  and  _209
REMARK   78  A    between atoms: _208  and  _211
REMARK   79  A    between atoms: _211  and  _212
REMARK   80  A    between atoms: _215  and  _217
REMARK   81  A    between atoms: _217  and  _218
REMARK   82  A    between atoms: _217  and  _220
REMARK   83  A    between atoms: _220  and  _221
REMARK   84  A    between atoms: _226  and  _227
REMARK   85  A    between atoms: _229  and  _231
REMARK   86  A    between atoms: _231  and  _232
REMARK   87  A    between atoms: _231  and  _234
REMARK   88  A    between atoms: _234  and  _235
REMARK   89  A    between atoms: _235  and  _236
REMARK   90  A    between atoms: _236  and  _237
REMARK   91  A    between atoms: _246  and  _248
REMARK   92  A    between atoms: _248  and  _249
REMARK   93  A    between atoms: _248  and  _251
REMARK   94  A    between atoms: _251  and  _252
REMARK   95  A    between atoms: _255  and  _257
REMARK   96  A    between atoms: _257  and  _258
REMARK   97  A    between atoms: _257  and  _260
REMARK   98  A    between atoms: _260  and  _261
REMARK   99  A    between atoms: _261  and  _262
REMARK  100  A    between atoms: _262  and  _263
REMARK  101  A    between atoms: _263  and  _264
REMARK  102  A    between atoms: _268  and  _270
REMARK  103  A    between atoms: _270  and  _271
REMARK  104  A    between atoms: _270  and  _273
REMARK  105  A    between atoms: _273  and  _274
REMARK  106  A    between atoms: _274  and  _275
REMARK  107  A    between atoms: _280  and  _282
REMARK  108  A    between atoms: _282  and  _283
REMARK  109  A    between atoms: _282  and  _285
REMARK  110  A    between atoms: _285  and  _286
REMARK  111  A    between atoms: _289  and  _291
REMARK  112  A    between atoms: _291  and  _292
REMARK  113  A    between atoms: _291  and  _294
REMARK  114  A    between atoms: _294  and  _295
REMARK  115  A    between atoms: _295  and  _296
REMARK  116  A    between atoms: _299  and  _301
REMARK  117  A    between atoms: _301  and  _302
REMARK  118  A    between atoms: _301  and  _304
REMARK  119  A    between atoms: _304  and  _305
REMARK  120  A    between atoms: _308  and  _310
REMARK  121  A    between atoms: _310  and  _311
REMARK  122  A    between atoms: _310  and  _313
REMARK  123  A    between atoms: _313  and  _314
REMARK  124  A    between atoms: _317  and  _319
REMARK  125  A    between atoms: _319  and  _320
REMARK  126  A    between atoms: _319  and  _322
REMARK  127  A    between atoms: _325  and  _327
REMARK  128  A    between atoms: _327  and  _328
REMARK  129  A    between atoms: _327  and  _330
REMARK  130  A    between atoms: _333  and  _335
REMARK  131  A    between atoms: _335  and  _336
REMARK  132  A    between atoms: _339  and  _341
REMARK  133  A    between atoms: _341  and  _342
REMARK  134  A    between atoms: _341  and  _344
REMARK  135  A    between atoms: _344  and  _345
REMARK  136  A    between atoms: _350  and  _352
REMARK  137  A    between atoms: _352  and  _353
REMARK  138  A    between atoms: _352  and  _355
REMARK  139  A    between atoms: _355  and  _356
REMARK  140  A    between atoms: _360  and  ZN_772
REMARK  141  A    between atoms: _361  and  _363
REMARK  142  A    between atoms: _363  and  _364
REMARK  143  A    between atoms: _363  and  _366
REMARK  144  A    between atoms: _366  and  _367
REMARK  145  A    between atoms: _367  and  _368
REMARK  146  A    between atoms: _371  and  _373
REMARK  147  A    between atoms: _373  and  _374
REMARK  148  A    between atoms: _373  and  _376
REMARK  149  A    between atoms: _376  and  _377
REMARK  150  A    between atoms: _377  and  _378
REMARK  151  A    between atoms: _380  and  _382
REMARK  152  A    between atoms: _382  and  _383
REMARK  153  A    between atoms: _382  and  _385
REMARK  154  A    between atoms: _385  and  _386
REMARK  155  A    between atoms: _390  and  ZN_772
REMARK  156  A    between atoms: _391  and  _393
REMARK  157  A    between atoms: _393  and  _394
REMARK  158  A    between atoms: _393  and  _396
REMARK  159  A    between atoms: _396  and  _397
REMARK  160  A    between atoms: _400  and  _402
REMARK  161  A    between atoms: _402  and  _403
REMARK  162  A    between atoms: _402  and  _405
REMARK  163  A    between atoms: _405  and  _406
REMARK  164  A    between atoms: _411  and  _412
REMARK  165  A    between atoms: _414  and  _416
REMARK  166  A    between atoms: _416  and  _417
REMARK  167  A    between atoms: _416  and  _419
REMARK  168  A    between atoms: _419  and  _420
REMARK  169  A    between atoms: _426  and  _428
REMARK  170  A    between atoms: _428  and  _429
REMARK  171  A    between atoms: _428  and  _431
REMARK  172  A    between atoms: _431  and  _432
REMARK  173  A    between atoms: _437  and  _438
REMARK  174  A    between atoms: _440  and  _442
REMARK  175  A    between atoms: _442  and  _443
REMARK  176  A    between atoms: _442  and  _445
REMARK  177  A    between atoms: _445  and  _446
REMARK  178  A    between atoms: _446  and  _447
REMARK  179  A    between atoms: _447  and  _448
REMARK  180  A    between atoms: _457  and  _459
REMARK  181  A    between atoms: _459  and  _460
REMARK  182  A    between atoms: _459  and  _462
REMARK  183  A    between atoms: _462  and  _463
REMARK  184  A    between atoms: _463  and  _464
REMARK  185  A    between atoms: _467  and  _469
REMARK  186  A    between atoms: _469  and  _470
REMARK  187  A    between atoms: _472  and  _474
REMARK  188  A    between atoms: _474  and  _475
REMARK  189  A    between atoms: _474  and  _477
REMARK  190  A    between atoms: _477  and  _478
REMARK  191  A    between atoms: _484  and  _485
REMARK  192  A    between atoms: _490  and  _492
REMARK  193  A    between atoms: _492  and  _493
REMARK  194  A    between atoms: _495  and  _497
REMARK  195  A    between atoms: _497  and  _498
REMARK  196  A    between atoms: _497  and  _500
REMARK  197  A    between atoms: _500  and  _501
REMARK  198  A    between atoms: _507  and  _509
REMARK  199  A    between atoms: _509  and  _510
REMARK  200  A    between atoms: _509  and  _512
REMARK  201  A    between atoms: _512  and  _513
REMARK  202  A    between atoms: _518  and  _520
REMARK  203  A    between atoms: _520  and  _521
REMARK  204  A    between atoms: _520  and  _523
REMARK  205  A    between atoms: _523  and  _524
REMARK  206  A    between atoms: _524  and  _525
REMARK  207  A    between atoms: _525  and  _526
REMARK  208  A    between atoms: _526  and  ZN_772
REMARK  209  A    between atoms: _528  and  _530
REMARK  210  A    between atoms: _530  and  _531
REMARK  211  A    between atoms: _534  and  _536
REMARK  212  A    between atoms: _536  and  _537
REMARK  213  A    between atoms: _539  and  _541
REMARK  214  A    between atoms: _541  and  _542
REMARK  215  A    between atoms: _541  and  _544
REMARK  216  A    between atoms: _544  and  _545
REMARK  217  A    between atoms: _548  and  _550
REMARK  218  A    between atoms: _550  and  _551
REMARK  219  A    between atoms: _554  and  _556
REMARK  220  A    between atoms: _556  and  _557
REMARK  221  A    between atoms: _556  and  _559
REMARK  222  A    between atoms: _559  and  _560
REMARK  223  A    between atoms: _563  and  _565
REMARK  224  A    between atoms: _565  and  _566
REMARK  225  A    between atoms: _565  and  _568
REMARK  226  A    between atoms: _568  and  _569
REMARK  227  A    between atoms: _569  and  _570
REMARK  228  A    between atoms: _570  and  _571
REMARK  229  A    between atoms: _571  and  _572
REMARK  230  A    between atoms: _576  and  _578
REMARK  231  A    between atoms: _578  and  _579
REMARK  232  A    between atoms: _578  and  _581
REMARK  233  A    between atoms: _581  and  _582
REMARK  234  A    between atoms: _588  and  _590
REMARK  235  A    between atoms: _590  and  _591
REMARK  236  A    between atoms: _590  and  _593
REMARK  237  A    between atoms: _593  and  _594
REMARK  238  A    between atoms: _600  and  _602
REMARK  239  A    between atoms: _602  and  _603
REMARK  240  A    between atoms: _602  and  _605
REMARK  241  A    between atoms: _605  and  _606
REMARK  242  A    between atoms: _608  and  _610
REMARK  243  A    between atoms: _610  and  _611
REMARK  244  A    between atoms: _610  and  _613
REMARK  245  A    between atoms: _616  and  _618
REMARK  246  A    between atoms: _618  and  _619
REMARK  247  A    between atoms: _618  and  _621
REMARK  248  A    between atoms: _621  and  _622
REMARK  249  A    between atoms: _622  and  _623
REMARK  250  A    between atoms: _623  and  _624
REMARK  251  A    between atoms: _624  and  _625
REMARK  252  A    between atoms: _629  and  _631
REMARK  253  A    between atoms: _631  and  _632
REMARK  254  A    between atoms: _631  and  _634
REMARK  255  A    between atoms: _634  and  _635
REMARK  256  A    between atoms: _641  and  _643
REMARK  257  A    between atoms: _643  and  _644
REMARK  258  A    between atoms: _643  and  _646
REMARK  259  A    between atoms: _646  and  _647
REMARK  260  A    between atoms: _652  and  _654
REMARK  261  A    between atoms: _654  and  _655
REMARK  262  A    between atoms: _654  and  _657
REMARK  263  A    between atoms: _657  and  _658
REMARK  264  A    between atoms: _660  and  _662
REMARK  265  A    between atoms: _662  and  _663
REMARK  266  A    between atoms: _662  and  _665
REMARK  267  A    between atoms: _665  and  _666
REMARK  268  A    between atoms: _668  and  _670
REMARK  269  A    between atoms: _670  and  _671
REMARK  270  A    between atoms: _670  and  _673
REMARK  271  A    between atoms: _677  and  _678
REMARK  272  A    between atoms: _683  and  _685
REMARK  273  A    between atoms: _685  and  _686
REMARK  274  A    between atoms: _685  and  _688
REMARK  275  A    between atoms: _688  and  _689
REMARK  276  A    between atoms: _694  and  _695
REMARK  277  A    between atoms: _697  and  _699
REMARK  278  A    between atoms: _699  and  _700
REMARK  279  A    between atoms: _699  and  _702
REMARK  280  A    between atoms: _702  and  _703
REMARK  281  A    between atoms: _703  and  _704
REMARK  282  A    between atoms: _704  and  _705
REMARK  283  A    between atoms: _714  and  _716
REMARK  284  A    between atoms: _716  and  _717
REMARK  285  A    between atoms: _716  and  _719
REMARK  286  A    between atoms: _719  and  _720
REMARK  287  A    between atoms: _725  and  _726
REMARK  288  A    between atoms: _728  and  _730
REMARK  289  A    between atoms: _730  and  _731
REMARK  290  A    between atoms: _730  and  _733
REMARK  291  A    between atoms: _733  and  _734
REMARK  292  A    between atoms: _740  and  _742
REMARK  293  A    between atoms: _742  and  _743
REMARK  294  A    between atoms: _742  and  _745
REMARK  295  A    between atoms: _745  and  _746
REMARK  296  A    between atoms: _748  and  _750
REMARK  297  A    between atoms: _750  and  _751
REMARK  298  A    between atoms: _750  and  _753
REMARK  299  A    between atoms: _753  and  _754
REMARK  300  A    between atoms: _760  and  _762
REMARK  301  A    between atoms: _762  and  _763
REMARK  302  A    between atoms: _762  and  _765
REMARK  303  A    between atoms: _765  and  _766
REMARK  304  A    between atoms: _766  and  _767
REMARK                            x       y       z     vdW  Elec       q    Type
REMARK                         _______ _______ _______ _____ _____    ______ ____
ROOT
ATOM      1  C   GLY A   1      24.178  -0.867 -26.648  0.00  0.00    +0.240 C 
ATOM      2  O   GLY A   1      25.084  -1.543 -27.150  0.00  0.00    -0.274 OA
ATOM      3  N   ASP A   2      23.084  -0.505 -27.312  0.00  0.00    -0.298 N 
ATOM      4  H   ASP A   2      22.362   0.061 -26.822  0.00  0.00    +0.150 HD
ENDROOT
BRANCH   1   5
ATOM      5  CA  GLY A   1      24.266  -0.396 -25.212  0.00  0.00    +0.169 C 
BRANCH   5   6
ATOM      6  N   GLY A   1      23.791   0.972 -25.029  0.00  0.00    -0.236 NA
ATOM      7  H   GLY A   1      22.989   1.143 -24.389  0.00  0.00    +0.142 HD
ENDBRANCH   5   6
ENDBRANCH   1   5
BRANCH   3   8
ATOM      8  CA  ASP A   2      22.864  -0.877 -28.710  0.00  0.00    +0.148 C 
BRANCH   8   9
ATOM      9  C   ASP A   2      23.909  -0.271 -29.656  0.00  0.00    +0.227 C 
ATOM     10  O   ASP A   2      24.272  -0.891 -30.650  0.00  0.00    -0.286 OA
ENDBRANCH   8   9
BRANCH   8  11
ATOM     11  CB  ASP A   2      21.468  -0.457 -29.165  0.00  0.00    +0.142 C 
BRANCH  11  12
ATOM     12  CG  ASP A   2      20.364  -1.392 -28.677  0.00  0.00    +0.367 C 
ATOM     13  OD2 ASP A   2      20.563  -2.163 -27.709  0.00  0.00    -0.246 OA
ATOM     14  OD1 ASP A   2      19.273  -1.339 -29.274  0.00  0.00    -0.246 OA
ENDBRANCH  11  12
ENDBRANCH   8  11
ENDBRANCH   3   8
TORSDOF 6
REMARK  Name = ../refined-set-2016/2xy9/2xy9_pocket.pdb
REMARK  304 active torsions:
REMARK  status: ('A' for Active; 'I' for Inactive)
REMARK    1  A    between atoms: _1  and  _3
REMARK    2  A    between atoms: _3  and  _4
REMARK    3  A    between atoms: _3  and  _6
REMARK    4  A    between atoms: _6  and  _7
REMARK    5  A    between atoms: _12  and  _14
REMARK    6  A    between atoms: _14  and  _15
REMARK    7  A    between atoms: _14  and  _17
REMARK    8  A    between atoms: _17  and  _18
REMARK    9  A    between atoms: _23  and  _25
REMARK   10  A    between atoms: _25  and  _26
REMARK   11  A    between atoms: _25  and  _28
REMARK   12  A    between atoms: _28  and  _29
REMARK   13  A    between atoms: _29  and  _30
REMARK   14  A    between atoms: _33  and  _35
REMARK   15  A    between atoms: _35  and  _36
REMARK   16  A    between atoms: _35  and  _38
REMARK   17  A    between atoms: _38  and  _39
REMARK   18  A    between atoms: _44  and  _45
REMARK   19  A    between atoms: _47  and  _49
REMARK   20  A    between atoms: _49  and  _50
REMARK   21  A    between atoms: _49  and  _52
REMARK   22  A    between atoms: _52  and  _53
REMARK   23  A    between atoms: _56  and  _58
REMARK   24  A    between atoms: _58  and  _59
REMARK   25  A    between atoms: _61  and  _63
REMARK   26  A    between atoms: _63  and  _64
REMARK   27  A    between atoms: _63  and  _66
REMARK   28  A    between atoms: _66  and  _67
REMARK   29  A    between atoms: _72  and  _74
REMARK   30  A    between atoms: _74  and  _75
REMARK   31  A    between atoms: _74  and  _77
REMARK   32  A    between atoms: _77  and  _78
REMARK   33  A    between atoms: _88  and  _90
REMARK   34  A    between atoms: _90  and  _91
REMARK   35  A    between atoms: _90  and  _93
REMARK   36  A    between atoms: _93  and  _94
REMARK   37  A    between atoms: _94  and  _95
REMARK   38  A    between atoms: _100  and  _102
REMARK   39  A    between atoms: _102  and  _103
REMARK   40  A    between atoms: _102  and  _105
REMARK   41  A    between atoms: _105  and  _106
REMARK   42  A    between atoms: _109  and  _111
REMARK   43  A    between atoms: _111  and  _112
REMARK   44  A    between atoms: _111  and  _114
REMARK   45  A    between atoms: _114  and  _115
REMARK   46  A    between atoms: _125  and  _127
REMARK   47  A    between atoms: _127  and  _128
REMARK   48  A    between atoms: _127  and  _130
REMARK   49  A    between atoms: _130  and  _131
REMARK   50  A    between atoms: _133  and  _135
REMARK   51  A    between atoms: _135  and  _136
REMARK   52  A    between atoms: _135  and  _138
REMARK   53  A    between atoms: _138  and  _139
REMARK   54  A    between atoms: _144  and  _146
REMARK   55  A    between atoms: _146  and  _147
REMARK   56  A    between atoms: _146  and  _149
REMARK   57  A    between atoms: _152  and  _154
REMARK   58  A    between atoms: _154  and  _155
REMARK   59  A    between atoms: _154  and  _157
REMARK   60  A    between atoms: _159  and  _161
REMARK   61  A    between atoms: _161  and  _162
REMARK   62  A    between atoms: _161  and  _164
REMARK   63  A    between atoms: _164  and  _165
REMARK   64  A    between atoms: _170  and  _172
REMARK   65  A    between atoms: _172  and  _173
REMARK   66  A    between atoms: _176  and  _178
REMARK   67  A    between atoms: _178  and  _179
REMARK   68  A    between atoms: _178  and  _181
REMARK   69  A    between atoms: _181  and  _182
REMARK   70  A    between atoms: _184  and  _186
REMARK   71  A    between atoms: _186  and  _187
REMARK   72  A    between atoms: _190  and  _192
REMARK   73  A    between atoms: _192  and  _193
REMARK   74  A    between atoms: _192  and  _195
REMARK   75  A    between atoms: _195  and  _196
REMARK   76  A    between atoms: _206  and  _208
REMARK   77  A    between atoms: _208  and  _209
REMARK   78  A    between atoms: _208  and  _211
REMARK   79  A    between atoms: _211  and  _212
REMARK   80  A    between atoms: _215  and  _217
REMARK   81  A    between atoms: _217  and  _218
REMARK   82  A    between atoms: _217  and  _220
REMARK   83  A    between atoms: _220  and  _221
REMARK   84  A    between atoms: _226  and  _227
REMARK   85  A    between atoms: _229  and  _231
REMARK   86  A    between atoms: _231  and  _232
REMARK   87  A    between atoms: _231  and  _234
REMARK   88  A    between atoms: _234  and  _235
REMARK   89  A    between atoms: _235  and  _236
REMARK   90  A    between atoms: _236  and  _237
REMARK   91  A    between atoms: _246  and  _248
REMARK   92  A    between atoms: _248  and  _249
REMARK   93  A    between atoms: _248  and  _251
REMARK   94  A    between atoms: _251  and  _252
REMARK   95  A    between atoms: _255  and  _257
REMARK   96  A    between atoms: _257  and  _258
REMARK   97  A    between atoms: _257  and  _260
REMARK   98  A    between atoms: _260  and  _261
REMARK   99  A    between atoms: _261  and  _262
REMARK  100  A    between atoms: _262  and  _263
REMARK  101  A    between atoms: _263  and  _264
REMARK  102  A    between atoms: _268  and  _270
REMARK  103  A    between atoms: _270  and  _271
REMARK  104  A    between atoms: _270  and  _273
REMARK  105  A    between atoms: _273  and  _274
REMARK  106  A    between atoms: _274  and  _275
REMARK  107  A    between atoms: _280  and  _282
REMARK  108  A    between atoms: _282  and  _283
REMARK  109  A    between atoms: _282  and  _285
REMARK  110  A    between atoms: _285  and  _286
REMARK  111  A    between atoms: _289  and  _291
REMARK  112  A    between atoms: _291  and  _292
REMARK  113  A    between atoms: _291  and  _294
REMARK  114  A    between atoms: _294  and  _295
REMARK  115  A    between atoms: _295  and  _296
REMARK  116  A    between atoms: _299  and  _301
REMARK  117  A    between atoms: _301  and  _302
REMARK  118  A    between atoms: _301  and  _304
REMARK  119  A    between atoms: _304  and  _305
REMARK  120  A    between atoms: _308  and  _310
REMARK  121  A    between atoms: _310  and  _311
REMARK  122  A    between atoms: _310  and  _313
REMARK  123  A    between atoms: _313  and  _314
REMARK  124  A    between atoms: _317  and  _319
REMARK  125  A    between atoms: _319  and  _320
REMARK  126  A    between atoms: _319  and  _322
REMARK  127  A    between atoms: _325  and  _327
REMARK  128  A    between atoms: _327  and  _328
REMARK  129  A    between atoms: _327  and  _330
REMARK  130  A    between atoms: _333  and  _335
REMARK  131  A    between atoms: _335  and  _336
REMARK  132  A    between atoms: _339  and  _341
REMARK  133  A    between atoms: _341  and  _342
REMARK  134  A    between atoms: _341  and  _344
REMARK  135  A    between atoms: _344  and  _345
REMARK  136  A    between atoms: _350  and  _352
REMARK  137  A    between atoms: _352  and  _353
REMARK  138  A    between atoms: _352  and  _355
REMARK  139  A    between atoms: _355  and  _356
REMARK  140  A    between atoms: _360  and  ZN_772
REMARK  141  A    between atoms: _361  and  _363
REMARK  142  A    between atoms: _363  and  _364
REMARK  143  A    between atoms: _363  and  _366
REMARK  144  A    between atoms: _366  and  _367
REMARK  145  A    between atoms: _367  and  _368
REMARK  146  A    between atoms: _371  and  _373
REMARK  147  A    between atoms: _373  and  _374
REMARK  148  A    between atoms: _373  and  _376
REMARK  149  A    between atoms: _376  and  _377
REMARK  150  A    between atoms: _377  and  _378
REMARK  151  A    between atoms: _380  and  _382
REMARK  152  A    between atoms: _382  and  _383
REMARK  153  A    between atoms: _382  and  _385
REMARK  154  A    between atoms: _385  and  _386
REMARK  155  A    between atoms: _390  and  ZN_772
REMARK  156  A    between atoms: _391  and  _393
REMARK  157  A    between atoms: _393  and  _394
REMARK  158  A    between atoms: _393  and  _396
REMARK  159  A    between atoms: _396  and  _397
REMARK  160  A    between atoms: _400  and  _402
REMARK  161  A    between atoms: _402  and  _403
REMARK  162  A    between atoms: _402  and  _405
REMARK  163  A    between atoms: _405  and  _406
REMARK  164  A    between atoms: _411  and  _412
REMARK  165  A    between atoms: _414  and  _416
REMARK  166  A    between atoms: _416  and  _417
REMARK  167  A    between atoms: _416  and  _419
REMARK  168  A    between atoms: _419  and  _420
REMARK  169  A    between atoms: _426  and  _428
REMARK  170  A    between atoms: _428  and  _429
REMARK  171  A    between atoms: _428  and  _431
REMARK  172  A    between atoms: _431  and  _432
REMARK  173  A    between atoms: _437  and  _438
REMARK  174  A    between atoms: _440  and  _442
REMARK  175  A    between atoms: _442  and  _443
REMARK  176  A    between atoms: _442  and  _445
REMARK  177  A    between atoms: _445  and  _446
REMARK  178  A    between atoms: _446  and  _447
REMARK  179  A    between atoms: _447  and  _448
REMARK  180  A    between atoms: _457  and  _459
REMARK  181  A    between atoms: _459  and  _460
REMARK  182  A    between atoms: _459  and  _462
REMARK  183  A    between atoms: _462  and  _463
REMARK  184  A    between atoms: _463  and  _464
REMARK  185  A    between atoms: _467  and  _469
REMARK  186  A    between atoms: _469  and  _470
REMARK  187  A    between atoms: _472  and  _474
REMARK  188  A    between atoms: _474  and  _475
REMARK  189  A    between atoms: _474  and  _477
REMARK  190  A    between atoms: _477  and  _478
REMARK  191  A    between atoms: _484  and  _485
REMARK  192  A    between atoms: _490  and  _492
REMARK  193  A    between atoms: _492  and  _493
REMARK  194  A    between atoms: _495  and  _497
REMARK  195  A    between atoms: _497  and  _498
REMARK  196  A    between atoms: _497  and  _500
REMARK  197  A    between atoms: _500  and  _501
REMARK  198  A    between atoms: _507  and  _509
REMARK  199  A    between atoms: _509  and  _510
REMARK  200  A    between atoms: _509  and  _512
REMARK  201  A    between atoms: _512  and  _513
REMARK  202  A    between atoms: _518  and  _520
REMARK  203  A    between atoms: _520  and  _521
REMARK  204  A    between atoms: _520  and  _523
REMARK  205  A    between atoms: _523  and  _524
REMARK  206  A    between atoms: _524  and  _525
REMARK  207  A    between atoms: _525  and  _526
REMARK  208  A    between atoms: _526  and  ZN_772
REMARK  209  A    between atoms: _528  and  _530
REMARK  210  A    between atoms: _530  and  _531
REMARK  211  A    between atoms: _534  and  _536
REMARK  212  A    between atoms: _536  and  _537
REMARK  213  A    between atoms: _539  and  _541
REMARK  214  A    between atoms: _541  and  _542
REMARK  215  A    between atoms: _541  and  _544
REMARK  216  A    between atoms: _544  and  _545
REMARK  217  A    between atoms: _548  and  _550
REMARK  218  A    between atoms: _550  and  _551
REMARK  219  A    between atoms: _554  and  _556
REMARK  220  A    between atoms: _556  and  _557
REMARK  221  A    between atoms: _556  and  _559
REMARK  222  A    between atoms: _559  and  _560
REMARK  223  A    between atoms: _563  and  _565
REMARK  224  A    between atoms: _565  and  _566
REMARK  225  A    between atoms: _565  and  _568
REMARK  226  A    between atoms: _568  and  _569
REMARK  227  A    between atoms: _569  and  _570
REMARK  228  A    between atoms: _570  and  _571
REMARK  229  A    between atoms: _571  and  _572
REMARK  230  A    between atoms: _576  and  _578
REMARK  231  A    between atoms: _578  and  _579
REMARK  232  A    between atoms: _578  and  _581
REMARK  233  A    between atoms: _581  and  _582
REMARK  234  A    between atoms: _588  and  _590
REMARK  235  A    between atoms: _590  and  _591
REMARK  236  A    between atoms: _590  and  _593
REMARK  237  A    between atoms: _593  and  _594
REMARK  238  A    between atoms: _600  and  _602
REMARK  239  A    between atoms: _602  and  _603
REMARK  240  A    between atoms: _602  and  _605
REMARK  241  A    between atoms: _605  and  _606
REMARK  242  A    between atoms: _608  and  _610
REMARK  243  A    between atoms: _610  and  _611
REMARK  244  A    between atoms: _610  and  _613
REMARK  245  A    between atoms: _616  and  _618
REMARK  246  A    between atoms: _618  and  _619
REMARK  247  A    between atoms: _618  and  _621
REMARK  248  A    between atoms: _621  and  _622
REMARK  249  A    between atoms: _622  and  _623
REMARK  250  A    between atoms: _623  and  _624
REMARK  251  A    between atoms: _624  and  _625
REMARK  252  A    between atoms: _629  and  _631
REMARK  253  A    between atoms: _631  and  _632
REMARK  254  A    between atoms: _631  and  _634
REMARK  255  A    between atoms: _634  and  _635
REMARK  256  A    between atoms: _641  and  _643
REMARK  257  A    between atoms: _643  and  _644
REMARK  258  A    between atoms: _643  and  _646
REMARK  259  A    between atoms: _646  and  _647
REMARK  260  A    between atoms: _652  and  _654
REMARK  261  A    between atoms: _654  and  _655
REMARK  262  A    between atoms: _654  and  _657
REMARK  263  A    between atoms: _657  and  _658
REMARK  264  A    between atoms: _660  and  _662
REMARK  265  A    between atoms: _662  and  _663
REMARK  266  A    between atoms: _662  and  _665
REMARK  267  A    between atoms: _665  and  _666
REMARK  268  A    between atoms: _668  and  _670
REMARK  269  A    between atoms: _670  and  _671
REMARK  270  A    between atoms: _670  and  _673
REMARK  271  A    between atoms: _677  and  _678
REMARK  272  A    between atoms: _683  and  _685
REMARK  273  A    between atoms: _685  and  _686
REMARK  274  A    between atoms: _685  and  _688
REMARK  275  A    between atoms: _688  and  _689
REMARK  276  A    between atoms: _694  and  _695
REMARK  277  A    between atoms: _697  and  _699
REMARK  278  A    between atoms: _699  and  _700
REMARK  279  A    between atoms: _699  and  _702
REMARK  280  A    between atoms: _702  and  _703
REMARK  281  A    between atoms: _703  and  _704
REMARK  282  A    between atoms: _704  and  _705
REMARK  283  A    between atoms: _714  and  _716
REMARK  284  A    between atoms: _716  and  _717
REMARK  285  A    between atoms: _716  and  _719
REMARK  286  A    between atoms: _719  and  _720
REMARK  287  A    between atoms: _725  and  _726
REMARK  288  A    between atoms: _728  and  _730
REMARK  289  A    between atoms: _730  and  _731
REMARK  290  A    between atoms: _730  and  _733
REMARK  291  A    between atoms: _733  and  _734
REMARK  292  A    between atoms: _740  and  _742
REMARK  293  A    between atoms: _742  and  _743
REMARK  294  A    between atoms: _742  and  _745
REMARK  295  A    between atoms: _745  and  _746
REMARK  296  A    between atoms: _748  and  _750
REMARK  297  A    between atoms: _750  and  _751
REMARK  298  A    between atoms: _750  and  _753
REMARK  299  A    between atoms: _753  and  _754
REMARK  300  A    between atoms: _760  and  _762
REMARK  301  A    between atoms: _762  and  _763
REMARK  302  A    between atoms: _762  and  _765
REMARK  303  A    between atoms: _765  and  _766
REMARK  304  A    between atoms: _766  and  _767
REMARK                            x       y       z     vdW  Elec       q    Type
REMARK                         _______ _______ _______ _____ _____    ______ ____
ROOT
ATOM      1  CA  ALA A   1      26.399  -3.767 -30.017  0.00  0.00    +0.133 C 
ATOM      2  CB  ALA A   1      25.038  -4.230 -29.486  0.00  0.00    +0.027 C 
ENDROOT
BRANCH   1   3
ATOM      3  N   ALA A   1      26.786  -2.489 -29.423  0.00  0.00    -0.239 NA
ATOM      4  H   ALA A   1      26.093  -1.967 -28.850  0.00  0.00    +0.142 HD
ENDBRANCH   1   3
BRANCH   1   5
ATOM      5  C   ALA A   1      26.414  -3.745 -31.548  0.00  0.00    +0.224 C 
ATOM      6  O   ALA A   1      26.649  -4.782 -32.174  0.00  0.00    -0.287 OA
ENDBRANCH   1   5
TORSDOF 2
REMARK  Name = ../refined-set-2016/2xy9/2xy9_pocket.pdb
REMARK  304 active torsions:
REMARK  status: ('A' for Active; 'I' for Inactive)
REMARK    1  A    between atoms: _1  and  _3
REMARK    2  A    between atoms: _3  and  _4
REMARK    3  A    between atoms: _3  and  _6
REMARK    4  A    between atoms: _6  and  _7
REMARK    5  A    between atoms: _12  and  _14
REMARK    6  A    between atoms: _14  and  _15
REMARK    7  A    between atoms: _14  and  _17
REMARK    8  A    between atoms: _17  and  _18
REMARK    9  A    between atoms: _23  and  _25
REMARK   10  A    between atoms: _25  and  _26
REMARK   11  A    between atoms: _25  and  _28
REMARK   12  A    between atoms: _28  and  _29
REMARK   13  A    between atoms: _29  and  _30
REMARK   14  A    between atoms: _33  and  _35
REMARK   15  A    between atoms: _35  and  _36
REMARK   16  A    between atoms: _35  and  _38
REMARK   17  A    between atoms: _38  and  _39
REMARK   18  A    between atoms: _44  and  _45
REMARK   19  A    between atoms: _47  and  _49
REMARK   20  A    between atoms: _49  and  _50
REMARK   21  A    between atoms: _49  and  _52
REMARK   22  A    between atoms: _52  and  _53
REMARK   23  A    between atoms: _56  and  _58
REMARK   24  A    between atoms: _58  and  _59
REMARK   25  A    between atoms: _61  and  _63
REMARK   26  A    between atoms: _63  and  _64
REMARK   27  A    between atoms: _63  and  _66
REMARK   28  A    between atoms: _66  and  _67
REMARK   29  A    between atoms: _72  and  _74
REMARK   30  A    between atoms: _74  and  _75
REMARK   31  A    between atoms: _74  and  _77
REMARK   32  A    between atoms: _77  and  _78
REMARK   33  A    between atoms: _88  and  _90
REMARK   34  A    between atoms: _90  and  _91
REMARK   35  A    between atoms: _90  and  _93
REMARK   36  A    between atoms: _93  and  _94
REMARK   37  A    between atoms: _94  and  _95
REMARK   38  A    between atoms: _100  and  _102
REMARK   39  A    between atoms: _102  and  _103
REMARK   40  A    between atoms: _102  and  _105
REMARK   41  A    between atoms: _105  and  _106
REMARK   42  A    between atoms: _109  and  _111
REMARK   43  A    between atoms: _111  and  _112
REMARK   44  A    between atoms: _111  and  _114
REMARK   45  A    between atoms: _114  and  _115
REMARK   46  A    between atoms: _125  and  _127
REMARK   47  A    between atoms: _127  and  _128
REMARK   48  A    between atoms: _127  and  _130
REMARK   49  A    between atoms: _130  and  _131
REMARK   50  A    between atoms: _133  and  _135
REMARK   51  A    between atoms: _135  and  _136
REMARK   52  A    between atoms: _135  and  _138
REMARK   53  A    between atoms: _138  and  _139
REMARK   54  A    between atoms: _144  and  _146
REMARK   55  A    between atoms: _146  and  _147
REMARK   56  A    between atoms: _146  and  _149
REMARK   57  A    between atoms: _152  and  _154
REMARK   58  A    between atoms: _154  and  _155
REMARK   59  A    between atoms: _154  and  _157
REMARK   60  A    between atoms: _159  and  _161
REMARK   61  A    between atoms: _161  and  _162
REMARK   62  A    between atoms: _161  and  _164
REMARK   63  A    between atoms: _164  and  _165
REMARK   64  A    between atoms: _170  and  _172
REMARK   65  A    between atoms: _172  and  _173
REMARK   66  A    between atoms: _176  and  _178
REMARK   67  A    between atoms: _178  and  _179
REMARK   68  A    between atoms: _178  and  _181
REMARK   69  A    between atoms: _181  and  _182
REMARK   70  A    between atoms: _184  and  _186
REMARK   71  A    between atoms: _186  and  _187
REMARK   72  A    between atoms: _190  and  _192
REMARK   73  A    between atoms: _192  and  _193
REMARK   74  A    between atoms: _192  and  _195
REMARK   75  A    between atoms: _195  and  _196
REMARK   76  A    between atoms: _206  and  _208
REMARK   77  A    between atoms: _208  and  _209
REMARK   78  A    between atoms: _208  and  _211
REMARK   79  A    between atoms: _211  and  _212
REMARK   80  A    between atoms: _215  and  _217
REMARK   81  A    between atoms: _217  and  _218
REMARK   82  A    between atoms: _217  and  _220
REMARK   83  A    between atoms: _220  and  _221
REMARK   84  A    between atoms: _226  and  _227
REMARK   85  A    between atoms: _229  and  _231
REMARK   86  A    between atoms: _231  and  _232
REMARK   87  A    between atoms: _231  and  _234
REMARK   88  A    between atoms: _234  and  _235
REMARK   89  A    between atoms: _235  and  _236
REMARK   90  A    between atoms: _236  and  _237
REMARK   91  A    between atoms: _246  and  _248
REMARK   92  A    between atoms: _248  and  _249
REMARK   93  A    between atoms: _248  and  _251
REMARK   94  A    between atoms: _251  and  _252
REMARK   95  A    between atoms: _255  and  _257
REMARK   96  A    between atoms: _257  and  _258
REMARK   97  A    between atoms: _257  and  _260
REMARK   98  A    between atoms: _260  and  _261
REMARK   99  A    between atoms: _261  and  _262
REMARK  100  A    between atoms: _262  and  _263
REMARK  101  A    between atoms: _263  and  _264
REMARK  102  A    between atoms: _268  and  _270
REMARK  103  A    between atoms: _270  and  _271
REMARK  104  A    between atoms: _270  and  _273
REMARK  105  A    between atoms: _273  and  _274
REMARK  106  A    between atoms: _274  and  _275
REMARK  107  A    between atoms: _280  and  _282
REMARK  108  A    between atoms: _282  and  _283
REMARK  109  A    between atoms: _282  and  _285
REMARK  110  A    between atoms: _285  and  _286
REMARK  111  A    between atoms: _289  and  _291
REMARK  112  A    between atoms: _291  and  _292
REMARK  113  A    between atoms: _291  and  _294
REMARK  114  A    between atoms: _294  and  _295
REMARK  115  A    between atoms: _295  and  _296
REMARK  116  A    between atoms: _299  and  _301
REMARK  117  A    between atoms: _301  and  _302
REMARK  118  A    between atoms: _301  and  _304
REMARK  119  A    between atoms: _304  and  _305
REMARK  120  A    between atoms: _308  and  _310
REMARK  121  A    between atoms: _310  and  _311
REMARK  122  A    between atoms: _310  and  _313
REMARK  123  A    between atoms: _313  and  _314
REMARK  124  A    between atoms: _317  and  _319
REMARK  125  A    between atoms: _319  and  _320
REMARK  126  A    between atoms: _319  and  _322
REMARK  127  A    between atoms: _325  and  _327
REMARK  128  A    between atoms: _327  and  _328
REMARK  129  A    between atoms: _327  and  _330
REMARK  130  A    between atoms: _333  and  _335
REMARK  131  A    between atoms: _335  and  _336
REMARK  132  A    between atoms: _339  and  _341
REMARK  133  A    between atoms: _341  and  _342
REMARK  134  A    between atoms: _341  and  _344
REMARK  135  A    between atoms: _344  and  _345
REMARK  136  A    between atoms: _350  and  _352
REMARK  137  A    between atoms: _352  and  _353
REMARK  138  A    between atoms: _352  and  _355
REMARK  139  A    between atoms: _355  and  _356
REMARK  140  A    between atoms: _360  and  ZN_772
REMARK  141  A    between atoms: _361  and  _363
REMARK  142  A    between atoms: _363  and  _364
REMARK  143  A    between atoms: _363  and  _366
REMARK  144  A    between atoms: _366  and  _367
REMARK  145  A    between atoms: _367  and  _368
REMARK  146  A    between atoms: _371  and  _373
REMARK  147  A    between atoms: _373  and  _374
REMARK  148  A    between atoms: _373  and  _376
REMARK  149  A    between atoms: _376  and  _377
REMARK  150  A    between atoms: _377  and  _378
REMARK  151  A    between atoms: _380  and  _382
REMARK  152  A    between atoms: _382  and  _383
REMARK  153  A    between atoms: _382  and  _385
REMARK  154  A    between atoms: _385  and  _386
REMARK  155  A    between atoms: _390  and  ZN_772
REMARK  156  A    between atoms: _391  and  _393
REMARK  157  A    between atoms: _393  and  _394
REMARK  158  A    between atoms: _393  and  _396
REMARK  159  A    between atoms: _396  and  _397
REMARK  160  A    between atoms: _400  and  _402
REMARK  161  A    between atoms: _402  and  _403
REMARK  162  A    between atoms: _402  and  _405
REMARK  163  A    between atoms: _405  and  _406
REMARK  164  A    between atoms: _411  and  _412
REMARK  165  A    between atoms: _414  and  _416
REMARK  166  A    between atoms: _416  and  _417
REMARK  167  A    between atoms: _416  and  _419
REMARK  168  A    between atoms: _419  and  _420
REMARK  169  A    between atoms: _426  and  _428
REMARK  170  A    between atoms: _428  and  _429
REMARK  171  A    between atoms: _428  and  _431
REMARK  172  A    between atoms: _431  and  _432
REMARK  173  A    between atoms: _437  and  _438
REMARK  174  A    between atoms: _440  and  _442
REMARK  175  A    between atoms: _442  and  _443
REMARK  176  A    between atoms: _442  and  _445
REMARK  177  A    between atoms: _445  and  _446
REMARK  178  A    between atoms: _446  and  _447
REMARK  179  A    between atoms: _447  and  _448
REMARK  180  A    between atoms: _457  and  _459
REMARK  181  A    between atoms: _459  and  _460
REMARK  182  A    between atoms: _459  and  _462
REMARK  183  A    between atoms: _462  and  _463
REMARK  184  A    between atoms: _463  and  _464
REMARK  185  A    between atoms: _467  and  _469
REMARK  186  A    between atoms: _469  and  _470
REMARK  187  A    between atoms: _472  and  _474
REMARK  188  A    between atoms: _474  and  _475
REMARK  189  A    between atoms: _474  and  _477
REMARK  190  A    between atoms: _477  and  _478
REMARK  191  A    between atoms: _484  and  _485
REMARK  192  A    between atoms: _490  and  _492
REMARK  193  A    between atoms: _492  and  _493
REMARK  194  A    between atoms: _495  and  _497
REMARK  195  A    between atoms: _497  and  _498
REMARK  196  A    between atoms: _497  and  _500
REMARK  197  A    between atoms: _500  and  _501
REMARK  198  A    between atoms: _507  and  _509
REMARK  199  A    between atoms: _509  and  _510
REMARK  200  A    between atoms: _509  and  _512
REMARK  201  A    between atoms: _512  and  _513
REMARK  202  A    between atoms: _518  and  _520
REMARK  203  A    between atoms: _520  and  _521
REMARK  204  A    between atoms: _520  and  _523
REMARK  205  A    between atoms: _523  and  _524
REMARK  206  A    between atoms: _524  and  _525
REMARK  207  A    between atoms: _525  and  _526
REMARK  208  A    between atoms: _526  and  ZN_772
REMARK  209  A    between atoms: _528  and  _530
REMARK  210  A    between atoms: _530  and  _531
REMARK  211  A    between atoms: _534  and  _536
REMARK  212  A    between atoms: _536  and  _537
REMARK  213  A    between atoms: _539  and  _541
REMARK  214  A    between atoms: _541  and  _542
REMARK  215  A    between atoms: _541  and  _544
REMARK  216  A    between atoms: _544  and  _545
REMARK  217  A    between atoms: _548  and  _550
REMARK  218  A    between atoms: _550  and  _551
REMARK  219  A    between atoms: _554  and  _556
REMARK  220  A    between atoms: _556  and  _557
REMARK  221  A    between atoms: _556  and  _559
REMARK  222  A    between atoms: _559  and  _560
REMARK  223  A    between atoms: _563  and  _565
REMARK  224  A    between atoms: _565  and  _566
REMARK  225  A    between atoms: _565  and  _568
REMARK  226  A    between atoms: _568  and  _569
REMARK  227  A    between atoms: _569  and  _570
REMARK  228  A    between atoms: _570  and  _571
REMARK  229  A    between atoms: _571  and  _572
REMARK  230  A    between atoms: _576  and  _578
REMARK  231  A    between atoms: _578  and  _579
REMARK  232  A    between atoms: _578  and  _581
REMARK  233  A    between atoms: _581  and  _582
REMARK  234  A    between atoms: _588  and  _590
REMARK  235  A    between atoms: _590  and  _591
REMARK  236  A    between atoms: _590  and  _593
REMARK  237  A    between atoms: _593  and  _594
REMARK  238  A    between atoms: _600  and  _602
REMARK  239  A    between atoms: _602  and  _603
REMARK  240  A    between atoms: _602  and  _605
REMARK  241  A    between atoms: _605  and  _606
REMARK  242  A    between atoms: _608  and  _610
REMARK  243  A    between atoms: _610  and  _611
REMARK  244  A    between atoms: _610  and  _613
REMARK  245  A    between atoms: _616  and  _618
REMARK  246  A    between atoms: _618  and  _619
REMARK  247  A    between atoms: _618  and  _621
REMARK  248  A    between atoms: _621  and  _622
REMARK  249  A    between atoms: _622  and  _623
REMARK  250  A    between atoms: _623  and  _624
REMARK  251  A    between atoms: _624  and  _625
REMARK  252  A    between atoms: _629  and  _631
REMARK  253  A    between atoms: _631  and  _632
REMARK  254  A    between atoms: _631  and  _634
REMARK  255  A    between atoms: _634  and  _635
REMARK  256  A    between atoms: _641  and  _643
REMARK  257  A    between atoms: _643  and  _644
REMARK  258  A    between atoms: _643  and  _646
REMARK  259  A    between atoms: _646  and  _647
REMARK  260  A    between atoms: _652  and  _654
REMARK  261  A    between atoms: _654  and  _655
REMARK  262  A    between atoms: _654  and  _657
REMARK  263  A    between atoms: _657  and  _658
REMARK  264  A    between atoms: _660  and  _662
REMARK  265  A    between atoms: _662  and  _663
REMARK  266  A    between atoms: _662  and  _665
REMARK  267  A    between atoms: _665  and  _666
REMARK  268  A    between atoms: _668  and  _670
REMARK  269  A    between atoms: _670  and  _671
REMARK  270  A    between atoms: _670  and  _673
REMARK  271  A    between atoms: _677  and  _678
REMARK  272  A    between atoms: _683  and  _685
REMARK  273  A    between atoms: _685  and  _686
REMARK  274  A    between atoms: _685  and  _688
REMARK  275  A    between atoms: _688  and  _689
REMARK  276  A    between atoms: _694  and  _695
REMARK  277  A    between atoms: _697  and  _699
REMARK  278  A    between atoms: _699  and  _700
REMARK  279  A    between atoms: _699  and  _702
REMARK  280  A    between atoms: _702  and  _703
REMARK  281  A    between atoms: _703  and  _704
REMARK  282  A    between atoms: _704  and  _705
REMARK  283  A    between atoms: _714  and  _716
REMARK  284  A    between atoms: _716  and  _717
REMARK  285  A    between atoms: _716  and  _719
REMARK  286  A    between atoms: _719  and  _720
REMARK  287  A    between atoms: _725  and  _726
REMARK  288  A    between atoms: _728  and  _730
REMARK  289  A    between atoms: _730  and  _731
REMARK  290  A    between atoms: _730  and  _733
REMARK  291  A    between atoms: _733  and  _734
REMARK  292  A    between atoms: _740  and  _742
REMARK  293  A    between atoms: _742  and  _743
REMARK  294  A    between atoms: _742  and  _745
REMARK  295  A    between atoms: _745  and  _746
REMARK  296  A    between atoms: _748  and  _750
REMARK  297  A    between atoms: _750  and  _751
REMARK  298  A    between atoms: _750  and  _753
REMARK  299  A    between atoms: _753  and  _754
REMARK  300  A    between atoms: _760  and  _762
REMARK  301  A    between atoms: _762  and  _763
REMARK  302  A    between atoms: _762  and  _765
REMARK  303  A    between atoms: _765  and  _766
REMARK  304  A    between atoms: _766  and  _767
REMARK                            x       y       z     vdW  Elec       q    Type
REMARK                         _______ _______ _______ _____ _____    ______ ____
ROOT
ATOM      1  C   ASP A   1      16.032  -5.220 -36.546  0.00  0.00    +0.239 C 
ATOM      2  O   ASP A   1      14.980  -4.825 -36.047  0.00  0.00    -0.274 OA
ATOM      3  N   LYS A   2      16.932  -4.409 -37.095  0.00  0.00    -0.298 N 
ATOM      4  H   LYS A   2      17.707  -4.821 -37.653  0.00  0.00    +0.150 HD
ENDROOT
BRANCH   1   5
ATOM      5  CA  ASP A   1      16.354  -6.703 -36.580  0.00  0.00    +0.156 C 
BRANCH   5   6
ATOM      6  N   ASP A   1      16.677  -7.191 -37.918  0.00  0.00    -0.238 NA
ATOM      7  H   ASP A   1      17.638  -7.072 -38.297  0.00  0.00    +0.142 HD
ENDBRANCH   5   6
BRANCH   5   8
ATOM      8  CB  ASP A   1      17.469  -7.037 -35.587  0.00  0.00    +0.140 C 
BRANCH   8   9
ATOM      9  CG  ASP A   1      17.556  -8.515 -35.298  0.00  0.00    +0.367 C 
ATOM     10  OD2 ASP A   1      18.634  -8.971 -34.867  0.00  0.00    -0.246 OA
ATOM     11  OD1 ASP A   1      16.550  -9.227 -35.511  0.00  0.00    -0.246 OA
ENDBRANCH   8   9
ENDBRANCH   5   8
ENDBRANCH   1   5
BRANCH   3  12
ATOM     12  CA  LYS A   2      16.866  -2.955 -36.939  0.00  0.00    +0.137 C 
BRANCH  12  13
ATOM     13  C   LYS A   2      15.760  -2.297 -37.754  0.00  0.00    +0.227 C 
ATOM     14  O   LYS A   2      15.153  -1.329 -37.305  0.00  0.00    -0.286 OA
ENDBRANCH  12  13
BRANCH  12  15
ATOM     15  CB  LYS A   2      18.232  -2.313 -37.241  0.00  0.00    +0.028 C 
BRANCH  15  16
ATOM     16  CG  LYS A   2      19.375  -2.833 -36.351  0.00  0.00    -0.000 C 
BRANCH  16  17
ATOM     17  CD  LYS A   2      19.202  -2.420 -34.884  0.00  0.00    -0.024 C 
BRANCH  17  18
ATOM     18  CE  LYS A   2      20.248  -3.064 -33.974  0.00  0.00    -0.086 C 
BRANCH  18  19
ATOM     19  NZ  LYS A   2      20.037  -2.679 -32.537  0.00  0.00    +0.380 N 
ATOM     20  HZ1 LYS A   2      20.764  -3.133 -31.947  0.00  0.00    -0.089 HD
ATOM     21  HZ2 LYS A   2      19.094  -2.993 -32.230  0.00  0.00    -0.089 HD
ATOM     22  HZ3 LYS A   2      20.108  -1.646 -32.442  0.00  0.00    -0.089 HD
ENDBRANCH  18  19
ENDBRANCH  17  18
ENDBRANCH  16  17
ENDBRANCH  15  16
ENDBRANCH  12  15
ENDBRANCH   3  12
TORSDOF 11
REMARK  Name = ../refined-set-2016/2xy9/2xy9_pocket.pdb
REMARK  304 active torsions:
REMARK  status: ('A' for Active; 'I' for Inactive)
REMARK    1  A    between atoms: _1  and  _3
REMARK    2  A    between atoms: _3  and  _4
REMARK    3  A    between atoms: _3  and  _6
REMARK    4  A    between atoms: _6  and  _7
REMARK    5  A    between atoms: _12  and  _14
REMARK    6  A    between atoms: _14  and  _15
REMARK    7  A    between atoms: _14  and  _17
REMARK    8  A    between atoms: _17  and  _18
REMARK    9  A    between atoms: _23  and  _25
REMARK   10  A    between atoms: _25  and  _26
REMARK   11  A    between atoms: _25  and  _28
REMARK   12  A    between atoms: _28  and  _29
REMARK   13  A    between atoms: _29  and  _30
REMARK   14  A    between atoms: _33  and  _35
REMARK   15  A    between atoms: _35  and  _36
REMARK   16  A    between atoms: _35  and  _38
REMARK   17  A    between atoms: _38  and  _39
REMARK   18  A    between atoms: _44  and  _45
REMARK   19  A    between atoms: _47  and  _49
REMARK   20  A    between atoms: _49  and  _50
REMARK   21  A    between atoms: _49  and  _52
REMARK   22  A    between atoms: _52  and  _53
REMARK   23  A    between atoms: _56  and  _58
REMARK   24  A    between atoms: _58  and  _59
REMARK   25  A    between atoms: _61  and  _63
REMARK   26  A    between atoms: _63  and  _64
REMARK   27  A    between atoms: _63  and  _66
REMARK   28  A    between atoms: _66  and  _67
REMARK   29  A    between atoms: _72  and  _74
REMARK   30  A    between atoms: _74  and  _75
REMARK   31  A    between atoms: _74  and  _77
REMARK   32  A    between atoms: _77  and  _78
REMARK   33  A    between atoms: _88  and  _90
REMARK   34  A    between atoms: _90  and  _91
REMARK   35  A    between atoms: _90  and  _93
REMARK   36  A    between atoms: _93  and  _94
REMARK   37  A    between atoms: _94  and  _95
REMARK   38  A    between atoms: _100  and  _102
REMARK   39  A    between atoms: _102  and  _103
REMARK   40  A    between atoms: _102  and  _105
REMARK   41  A    between atoms: _105  and  _106
REMARK   42  A    between atoms: _109  and  _111
REMARK   43  A    between atoms: _111  and  _112
REMARK   44  A    between atoms: _111  and  _114
REMARK   45  A    between atoms: _114  and  _115
REMARK   46  A    between atoms: _125  and  _127
REMARK   47  A    between atoms: _127  and  _128
REMARK   48  A    between atoms: _127  and  _130
REMARK   49  A    between atoms: _130  and  _131
REMARK   50  A    between atoms: _133  and  _135
REMARK   51  A    between atoms: _135  and  _136
REMARK   52  A    between atoms: _135  and  _138
REMARK   53  A    between atoms: _138  and  _139
REMARK   54  A    between atoms: _144  and  _146
REMARK   55  A    between atoms: _146  and  _147
REMARK   56  A    between atoms: _146  and  _149
REMARK   57  A    between atoms: _152  and  _154
REMARK   58  A    between atoms: _154  and  _155
REMARK   59  A    between atoms: _154  and  _157
REMARK   60  A    between atoms: _159  and  _161
REMARK   61  A    between atoms: _161  and  _162
REMARK   62  A    between atoms: _161  and  _164
REMARK   63  A    between atoms: _164  and  _165
REMARK   64  A    between atoms: _170  and  _172
REMARK   65  A    between atoms: _172  and  _173
REMARK   66  A    between atoms: _176  and  _178
REMARK   67  A    between atoms: _178  and  _179
REMARK   68  A    between atoms: _178  and  _181
REMARK   69  A    between atoms: _181  and  _182
REMARK   70  A    between atoms: _184  and  _186
REMARK   71  A    between atoms: _186  and  _187
REMARK   72  A    between atoms: _190  and  _192
REMARK   73  A    between atoms: _192  and  _193
REMARK   74  A    between atoms: _192  and  _195
REMARK   75  A    between atoms: _195  and  _196
REMARK   76  A    between atoms: _206  and  _208
REMARK   77  A    between atoms: _208  and  _209
REMARK   78  A    between atoms: _208  and  _211
REMARK   79  A    between atoms: _211  and  _212
REMARK   80  A    between atoms: _215  and  _217
REMARK   81  A    between atoms: _217  and  _218
REMARK   82  A    between atoms: _217  and  _220
REMARK   83  A    between atoms: _220  and  _221
REMARK   84  A    between atoms: _226  and  _227
REMARK   85  A    between atoms: _229  and  _231
REMARK   86  A    between atoms: _231  and  _232
REMARK   87  A    between atoms: _231  and  _234
REMARK   88  A    between atoms: _234  and  _235
REMARK   89  A    between atoms: _235  and  _236
REMARK   90  A    between atoms: _236  and  _237
REMARK   91  A    between atoms: _246  and  _248
REMARK   92  A    between atoms: _248  and  _249
REMARK   93  A    between atoms: _248  and  _251
REMARK   94  A    between atoms: _251  and  _252
REMARK   95  A    between atoms: _255  and  _257
REMARK   96  A    between atoms: _257  and  _258
REMARK   97  A    between atoms: _257  and  _260
REMARK   98  A    between atoms: _260  and  _261
REMARK   99  A    between atoms: _261  and  _262
REMARK  100  A    between atoms: _262  and  _263
REMARK  101  A    between atoms: _263  and  _264
REMARK  102  A    between atoms: _268  and  _270
REMARK  103  A    between atoms: _270  and  _271
REMARK  104  A    between atoms: _270  and  _273
REMARK  105  A    between atoms: _273  and  _274
REMARK  106  A    between atoms: _274  and  _275
REMARK  107  A    between atoms: _280  and  _282
REMARK  108  A    between atoms: _282  and  _283
REMARK  109  A    between atoms: _282  and  _285
REMARK  110  A    between atoms: _285  and  _286
REMARK  111  A    between atoms: _289  and  _291
REMARK  112  A    between atoms: _291  and  _292
REMARK  113  A    between atoms: _291  and  _294
REMARK  114  A    between atoms: _294  and  _295
REMARK  115  A    between atoms: _295  and  _296
REMARK  116  A    between atoms: _299  and  _301
REMARK  117  A    between atoms: _301  and  _302
REMARK  118  A    between atoms: _301  and  _304
REMARK  119  A    between atoms: _304  and  _305
REMARK  120  A    between atoms: _308  and  _310
REMARK  121  A    between atoms: _310  and  _311
REMARK  122  A    between atoms: _310  and  _313
REMARK  123  A    between atoms: _313  and  _314
REMARK  124  A    between atoms: _317  and  _319
REMARK  125  A    between atoms: _319  and  _320
REMARK  126  A    between atoms: _319  and  _322
REMARK  127  A    between atoms: _325  and  _327
REMARK  128  A    between atoms: _327  and  _328
REMARK  129  A    between atoms: _327  and  _330
REMARK  130  A    between atoms: _333  and  _335
REMARK  131  A    between atoms: _335  and  _336
REMARK  132  A    between atoms: _339  and  _341
REMARK  133  A    between atoms: _341  and  _342
REMARK  134  A    between atoms: _341  and  _344
REMARK  135  A    between atoms: _344  and  _345
REMARK  136  A    between atoms: _350  and  _352
REMARK  137  A    between atoms: _352  and  _353
REMARK  138  A    between atoms: _352  and  _355
REMARK  139  A    between atoms: _355  and  _356
REMARK  140  A    between atoms: _360  and  ZN_772
REMARK  141  A    between atoms: _361  and  _363
REMARK  142  A    between atoms: _363  and  _364
REMARK  143  A    between atoms: _363  and  _366
REMARK  144  A    between atoms: _366  and  _367
REMARK  145  A    between atoms: _367  and  _368
REMARK  146  A    between atoms: _371  and  _373
REMARK  147  A    between atoms: _373  and  _374
REMARK  148  A    between atoms: _373  and  _376
REMARK  149  A    between atoms: _376  and  _377
REMARK  150  A    between atoms: _377  and  _378
REMARK  151  A    between atoms: _380  and  _382
REMARK  152  A    between atoms: _382  and  _383
REMARK  153  A    between atoms: _382  and  _385
REMARK  154  A    between atoms: _385  and  _386
REMARK  155  A    between atoms: _390  and  ZN_772
REMARK  156  A    between atoms: _391  and  _393
REMARK  157  A    between atoms: _393  and  _394
REMARK  158  A    between atoms: _393  and  _396
REMARK  159  A    between atoms: _396  and  _397
REMARK  160  A    between atoms: _400  and  _402
REMARK  161  A    between atoms: _402  and  _403
REMARK  162  A    between atoms: _402  and  _405
REMARK  163  A    between atoms: _405  and  _406
REMARK  164  A    between atoms: _411  and  _412
REMARK  165  A    between atoms: _414  and  _416
REMARK  166  A    between atoms: _416  and  _417
REMARK  167  A    between atoms: _416  and  _419
REMARK  168  A    between atoms: _419  and  _420
REMARK  169  A    between atoms: _426  and  _428
REMARK  170  A    between atoms: _428  and  _429
REMARK  171  A    between atoms: _428  and  _431
REMARK  172  A    between atoms: _431  and  _432
REMARK  173  A    between atoms: _437  and  _438
REMARK  174  A    between atoms: _440  and  _442
REMARK  175  A    between atoms: _442  and  _443
REMARK  176  A    between atoms: _442  and  _445
REMARK  177  A    between atoms: _445  and  _446
REMARK  178  A    between atoms: _446  and  _447
REMARK  179  A    between atoms: _447  and  _448
REMARK  180  A    between atoms: _457  and  _459
REMARK  181  A    between atoms: _459  and  _460
REMARK  182  A    between atoms: _459  and  _462
REMARK  183  A    between atoms: _462  and  _463
REMARK  184  A    between atoms: _463  and  _464
REMARK  185  A    between atoms: _467  and  _469
REMARK  186  A    between atoms: _469  and  _470
REMARK  187  A    between atoms: _472  and  _474
REMARK  188  A    between atoms: _474  and  _475
REMARK  189  A    between atoms: _474  and  _477
REMARK  190  A    between atoms: _477  and  _478
REMARK  191  A    between atoms: _484  and  _485
REMARK  192  A    between atoms: _490  and  _492
REMARK  193  A    between atoms: _492  and  _493
REMARK  194  A    between atoms: _495  and  _497
REMARK  195  A    between atoms: _497  and  _498
REMARK  196  A    between atoms: _497  and  _500
REMARK  197  A    between atoms: _500  and  _501
REMARK  198  A    between atoms: _507  and  _509
REMARK  199  A    between atoms: _509  and  _510
REMARK  200  A    between atoms: _509  and  _512
REMARK  201  A    between atoms: _512  and  _513
REMARK  202  A    between atoms: _518  and  _520
REMARK  203  A    between atoms: _520  and  _521
REMARK  204  A    between atoms: _520  and  _523
REMARK  205  A    between atoms: _523  and  _524
REMARK  206  A    between atoms: _524  and  _525
REMARK  207  A    between atoms: _525  and  _526
REMARK  208  A    between atoms: _526  and  ZN_772
REMARK  209  A    between atoms: _528  and  _530
REMARK  210  A    between atoms: _530  and  _531
REMARK  211  A    between atoms: _534  and  _536
REMARK  212  A    between atoms: _536  and  _537
REMARK  213  A    between atoms: _539  and  _541
REMARK  214  A    between atoms: _541  and  _542
REMARK  215  A    between atoms: _541  and  _544
REMARK  216  A    between atoms: _544  and  _545
REMARK  217  A    between atoms: _548  and  _550
REMARK  218  A    between atoms: _550  and  _551
REMARK  219  A    between atoms: _554  and  _556
REMARK  220  A    between atoms: _556  and  _557
REMARK  221  A    between atoms: _556  and  _559
REMARK  222  A    between atoms: _559  and  _560
REMARK  223  A    between atoms: _563  and  _565
REMARK  224  A    between atoms: _565  and  _566
REMARK  225  A    between atoms: _565  and  _568
REMARK  226  A    between atoms: _568  and  _569
REMARK  227  A    between atoms: _569  and  _570
REMARK  228  A    between atoms: _570  and  _571
REMARK  229  A    between atoms: _571  and  _572
REMARK  230  A    between atoms: _576  and  _578
REMARK  231  A    between atoms: _578  and  _579
REMARK  232  A    between atoms: _578  and  _581
REMARK  233  A    between atoms: _581  and  _582
REMARK  234  A    between atoms: _588  and  _590
REMARK  235  A    between atoms: _590  and  _591
REMARK  236  A    between atoms: _590  and  _593
REMARK  237  A    between atoms: _593  and  _594
REMARK  238  A    between atoms: _600  and  _602
REMARK  239  A    between atoms: _602  and  _603
REMARK  240  A    between atoms: _602  and  _605
REMARK  241  A    between atoms: _605  and  _606
REMARK  242  A    between atoms: _608  and  _610
REMARK  243  A    between atoms: _610  and  _611
REMARK  244  A    between atoms: _610  and  _613
REMARK  245  A    between atoms: _616  and  _618
REMARK  246  A    between atoms: _618  and  _619
REMARK  247  A    between atoms: _618  and  _621
REMARK  248  A    between atoms: _621  and  _622
REMARK  249  A    between atoms: _622  and  _623
REMARK  250  A    between atoms: _623  and  _624
REMARK  251  A    between atoms: _624  and  _625
REMARK  252  A    between atoms: _629  and  _631
REMARK  253  A    between atoms: _631  and  _632
REMARK  254  A    between atoms: _631  and  _634
REMARK  255  A    between atoms: _634  and  _635
REMARK  256  A    between atoms: _641  and  _643
REMARK  257  A    between atoms: _643  and  _644
REMARK  258  A    between atoms: _643  and  _646
REMARK  259  A    between atoms: _646  and  _647
REMARK  260  A    between atoms: _652  and  _654
REMARK  261  A    between atoms: _654  and  _655
REMARK  262  A    between atoms: _654  and  _657
REMARK  263  A    between atoms: _657  and  _658
REMARK  264  A    between atoms: _660  and  _662
REMARK  265  A    between atoms: _662  and  _663
REMARK  266  A    between atoms: _662  and  _665
REMARK  267  A    between atoms: _665  and  _666
REMARK  268  A    between atoms: _668  and  _670
REMARK  269  A    between atoms: _670  and  _671
REMARK  270  A    between atoms: _670  and  _673
REMARK  271  A    between atoms: _677  and  _678
REMARK  272  A    between atoms: _683  and  _685
REMARK  273  A    between atoms: _685  and  _686
REMARK  274  A    between atoms: _685  and  _688
REMARK  275  A    between atoms: _688  and  _689
REMARK  276  A    between atoms: _694  and  _695
REMARK  277  A    between atoms: _697  and  _699
REMARK  278  A    between atoms: _699  and  _700
REMARK  279  A    between atoms: _699  and  _702
REMARK  280  A    between atoms: _702  and  _703
REMARK  281  A    between atoms: _703  and  _704
REMARK  282  A    between atoms: _704  and  _705
REMARK  283  A    between atoms: _714  and  _716
REMARK  284  A    between atoms: _716  and  _717
REMARK  285  A    between atoms: _716  and  _719
REMARK  286  A    between atoms: _719  and  _720
REMARK  287  A    between atoms: _725  and  _726
REMARK  288  A    between atoms: _728  and  _730
REMARK  289  A    between atoms: _730  and  _731
REMARK  290  A    between atoms: _730  and  _733
REMARK  291  A    between atoms: _733  and  _734
REMARK  292  A    between atoms: _740  and  _742
REMARK  293  A    between atoms: _742  and  _743
REMARK  294  A    between atoms: _742  and  _745
REMARK  295  A    between atoms: _745  and  _746
REMARK  296  A    between atoms: _748  and  _750
REMARK  297  A    between atoms: _750  and  _751
REMARK  298  A    between atoms: _750  and  _753
REMARK  299  A    between atoms: _753  and  _754
REMARK  300  A    between atoms: _760  and  _762
REMARK  301  A    between atoms: _762  and  _763
REMARK  302  A    between atoms: _762  and  _765
REMARK  303  A    between atoms: _765  and  _766
REMARK  304  A    between atoms: _766  and  _767
REMARK                            x       y       z     vdW  Elec       q    Type
REMARK                         _______ _______ _______ _____ _____    ______ ____
ROOT
ATOM      1  CB  PHE A   1      12.696  -3.415 -34.335  0.00  0.00    +0.051 C 
ENDROOT
BRANCH   1   2
ATOM      2  CG  PHE A   1      12.316  -3.113 -32.911  0.00  0.00    -0.020 A 
ATOM      3  CD2 PHE A   1      11.640  -4.051 -32.137  0.00  0.00    -0.004 A 
ATOM      4  CE2 PHE A   1      11.303  -3.771 -30.808  0.00  0.00    -0.000 A 
ATOM      5  CZ  PHE A   1      11.651  -2.550 -30.249  0.00  0.00    -0.000 A 
ATOM      6  CE1 PHE A   1      12.337  -1.609 -31.016  0.00  0.00    -0.000 A 
ATOM      7  CD1 PHE A   1      12.659  -1.894 -32.335  0.00  0.00    -0.004 A 
ENDBRANCH   1   2
BRANCH   1   8
ATOM      8  CA  PHE A   1      11.516  -3.419 -35.318  0.00  0.00    +0.137 C 
BRANCH   8   9
ATOM      9  N   PHE A   1      11.967  -3.883 -36.630  0.00  0.00    -0.239 NA
ATOM     10  H   PHE A   1      12.988  -3.909 -36.828  0.00  0.00    +0.142 HD
ENDBRANCH   8   9
BRANCH   8  11
ATOM     11  C   PHE A   1      10.849  -2.046 -35.362  0.00  0.00    +0.224 C 
ATOM     12  O   PHE A   1      10.093  -1.697 -34.457  0.00  0.00    -0.287 OA
ENDBRANCH   8  11
ENDBRANCH   1   8
TORSDOF 4
REMARK  Name = ../refined-set-2016/2xy9/2xy9_pocket.pdb
REMARK  304 active torsions:
REMARK  status: ('A' for Active; 'I' for Inactive)
REMARK    1  A    between atoms: _1  and  _3
REMARK    2  A    between atoms: _3  and  _4
REMARK    3  A    between atoms: _3  and  _6
REMARK    4  A    between atoms: _6  and  _7
REMARK    5  A    between atoms: _12  and  _14
REMARK    6  A    between atoms: _14  and  _15
REMARK    7  A    between atoms: _14  and  _17
REMARK    8  A    between atoms: _17  and  _18
REMARK    9  A    between atoms: _23  and  _25
REMARK   10  A    between atoms: _25  and  _26
REMARK   11  A    between atoms: _25  and  _28
REMARK   12  A    between atoms: _28  and  _29
REMARK   13  A    between atoms: _29  and  _30
REMARK   14  A    between atoms: _33  and  _35
REMARK   15  A    between atoms: _35  and  _36
REMARK   16  A    between atoms: _35  and  _38
REMARK   17  A    between atoms: _38  and  _39
REMARK   18  A    between atoms: _44  and  _45
REMARK   19  A    between atoms: _47  and  _49
REMARK   20  A    between atoms: _49  and  _50
REMARK   21  A    between atoms: _49  and  _52
REMARK   22  A    between atoms: _52  and  _53
REMARK   23  A    between atoms: _56  and  _58
REMARK   24  A    between atoms: _58  and  _59
REMARK   25  A    between atoms: _61  and  _63
REMARK   26  A    between atoms: _63  and  _64
REMARK   27  A    between atoms: _63  and  _66
REMARK   28  A    between atoms: _66  and  _67
REMARK   29  A    between atoms: _72  and  _74
REMARK   30  A    between atoms: _74  and  _75
REMARK   31  A    between atoms: _74  and  _77
REMARK   32  A    between atoms: _77  and  _78
REMARK   33  A    between atoms: _88  and  _90
REMARK   34  A    between atoms: _90  and  _91
REMARK   35  A    between atoms: _90  and  _93
REMARK   36  A    between atoms: _93  and  _94
REMARK   37  A    between atoms: _94  and  _95
REMARK   38  A    between atoms: _100  and  _102
REMARK   39  A    between atoms: _102  and  _103
REMARK   40  A    between atoms: _102  and  _105
REMARK   41  A    between atoms: _105  and  _106
REMARK   42  A    between atoms: _109  and  _111
REMARK   43  A    between atoms: _111  and  _112
REMARK   44  A    between atoms: _111  and  _114
REMARK   45  A    between atoms: _114  and  _115
REMARK   46  A    between atoms: _125  and  _127
REMARK   47  A    between atoms: _127  and  _128
REMARK   48  A    between atoms: _127  and  _130
REMARK   49  A    between atoms: _130  and  _131
REMARK   50  A    between atoms: _133  and  _135
REMARK   51  A    between atoms: _135  and  _136
REMARK   52  A    between atoms: _135  and  _138
REMARK   53  A    between atoms: _138  and  _139
REMARK   54  A    between atoms: _144  and  _146
REMARK   55  A    between atoms: _146  and  _147
REMARK   56  A    between atoms: _146  and  _149
REMARK   57  A    between atoms: _152  and  _154
REMARK   58  A    between atoms: _154  and  _155
REMARK   59  A    between atoms: _154  and  _157
REMARK   60  A    between atoms: _159  and  _161
REMARK   61  A    between atoms: _161  and  _162
REMARK   62  A    between atoms: _161  and  _164
REMARK   63  A    between atoms: _164  and  _165
REMARK   64  A    between atoms: _170  and  _172
REMARK   65  A    between atoms: _172  and  _173
REMARK   66  A    between atoms: _176  and  _178
REMARK   67  A    between atoms: _178  and  _179
REMARK   68  A    between atoms: _178  and  _181
REMARK   69  A    between atoms: _181  and  _182
REMARK   70  A    between atoms: _184  and  _186
REMARK   71  A    between atoms: _186  and  _187
REMARK   72  A    between atoms: _190  and  _192
REMARK   73  A    between atoms: _192  and  _193
REMARK   74  A    between atoms: _192  and  _195
REMARK   75  A    between atoms: _195  and  _196
REMARK   76  A    between atoms: _206  and  _208
REMARK   77  A    between atoms: _208  and  _209
REMARK   78  A    between atoms: _208  and  _211
REMARK   79  A    between atoms: _211  and  _212
REMARK   80  A    between atoms: _215  and  _217
REMARK   81  A    between atoms: _217  and  _218
REMARK   82  A    between atoms: _217  and  _220
REMARK   83  A    between atoms: _220  and  _221
REMARK   84  A    between atoms: _226  and  _227
REMARK   85  A    between atoms: _229  and  _231
REMARK   86  A    between atoms: _231  and  _232
REMARK   87  A    between atoms: _231  and  _234
REMARK   88  A    between atoms: _234  and  _235
REMARK   89  A    between atoms: _235  and  _236
REMARK   90  A    between atoms: _236  and  _237
REMARK   91  A    between atoms: _246  and  _248
REMARK   92  A    between atoms: _248  and  _249
REMARK   93  A    between atoms: _248  and  _251
REMARK   94  A    between atoms: _251  and  _252
REMARK   95  A    between atoms: _255  and  _257
REMARK   96  A    between atoms: _257  and  _258
REMARK   97  A    between atoms: _257  and  _260
REMARK   98  A    between atoms: _260  and  _261
REMARK   99  A    between atoms: _261  and  _262
REMARK  100  A    between atoms: _262  and  _263
REMARK  101  A    between atoms: _263  and  _264
REMARK  102  A    between atoms: _268  and  _270
REMARK  103  A    between atoms: _270  and  _271
REMARK  104  A    between atoms: _270  and  _273
REMARK  105  A    between atoms: _273  and  _274
REMARK  106  A    between atoms: _274  and  _275
REMARK  107  A    between atoms: _280  and  _282
REMARK  108  A    between atoms: _282  and  _283
REMARK  109  A    between atoms: _282  and  _285
REMARK  110  A    between atoms: _285  and  _286
REMARK  111  A    between atoms: _289  and  _291
REMARK  112  A    between atoms: _291  and  _292
REMARK  113  A    between atoms: _291  and  _294
REMARK  114  A    between atoms: _294  and  _295
REMARK  115  A    between atoms: _295  and  _296
REMARK  116  A    between atoms: _299  and  _301
REMARK  117  A    between atoms: _301  and  _302
REMARK  118  A    between atoms: _301  and  _304
REMARK  119  A    between atoms: _304  and  _305
REMARK  120  A    between atoms: _308  and  _310
REMARK  121  A    between atoms: _310  and  _311
REMARK  122  A    between atoms: _310  and  _313
REMARK  123  A    between atoms: _313  and  _314
REMARK  124  A    between atoms: _317  and  _319
REMARK  125  A    between atoms: _319  and  _320
REMARK  126  A    between atoms: _319  and  _322
REMARK  127  A    between atoms: _325  and  _327
REMARK  128  A    between atoms: _327  and  _328
REMARK  129  A    between atoms: _327  and  _330
REMARK  130  A    between atoms: _333  and  _335
REMARK  131  A    between atoms: _335  and  _336
REMARK  132  A    between atoms: _339  and  _341
REMARK  133  A    between atoms: _341  and  _342
REMARK  134  A    between atoms: _341  and  _344
REMARK  135  A    between atoms: _344  and  _345
REMARK  136  A    between atoms: _350  and  _352
REMARK  137  A    between atoms: _352  and  _353
REMARK  138  A    between atoms: _352  and  _355
REMARK  139  A    between atoms: _355  and  _356
REMARK  140  A    between atoms: _360  and  ZN_772
REMARK  141  A    between atoms: _361  and  _363
REMARK  142  A    between atoms: _363  and  _364
REMARK  143  A    between atoms: _363  and  _366
REMARK  144  A    between atoms: _366  and  _367
REMARK  145  A    between atoms: _367  and  _368
REMARK  146  A    between atoms: _371  and  _373
REMARK  147  A    between atoms: _373  and  _374
REMARK  148  A    between atoms: _373  and  _376
REMARK  149  A    between atoms: _376  and  _377
REMARK  150  A    between atoms: _377  and  _378
REMARK  151  A    between atoms: _380  and  _382
REMARK  152  A    between atoms: _382  and  _383
REMARK  153  A    between atoms: _382  and  _385
REMARK  154  A    between atoms: _385  and  _386
REMARK  155  A    between atoms: _390  and  ZN_772
REMARK  156  A    between atoms: _391  and  _393
REMARK  157  A    between atoms: _393  and  _394
REMARK  158  A    between atoms: _393  and  _396
REMARK  159  A    between atoms: _396  and  _397
REMARK  160  A    between atoms: _400  and  _402
REMARK  161  A    between atoms: _402  and  _403
REMARK  162  A    between atoms: _402  and  _405
REMARK  163  A    between atoms: _405  and  _406
REMARK  164  A    between atoms: _411  and  _412
REMARK  165  A    between atoms: _414  and  _416
REMARK  166  A    between atoms: _416  and  _417
REMARK  167  A    between atoms: _416  and  _419
REMARK  168  A    between atoms: _419  and  _420
REMARK  169  A    between atoms: _426  and  _428
REMARK  170  A    between atoms: _428  and  _429
REMARK  171  A    between atoms: _428  and  _431
REMARK  172  A    between atoms: _431  and  _432
REMARK  173  A    between atoms: _437  and  _438
REMARK  174  A    between atoms: _440  and  _442
REMARK  175  A    between atoms: _442  and  _443
REMARK  176  A    between atoms: _442  and  _445
REMARK  177  A    between atoms: _445  and  _446
REMARK  178  A    between atoms: _446  and  _447
REMARK  179  A    between atoms: _447  and  _448
REMARK  180  A    between atoms: _457  and  _459
REMARK  181  A    between atoms: _459  and  _460
REMARK  182  A    between atoms: _459  and  _462
REMARK  183  A    between atoms: _462  and  _463
REMARK  184  A    between atoms: _463  and  _464
REMARK  185  A    between atoms: _467  and  _469
REMARK  186  A    between atoms: _469  and  _470
REMARK  187  A    between atoms: _472  and  _474
REMARK  188  A    between atoms: _474  and  _475
REMARK  189  A    between atoms: _474  and  _477
REMARK  190  A    between atoms: _477  and  _478
REMARK  191  A    between atoms: _484  and  _485
REMARK  192  A    between atoms: _490  and  _492
REMARK  193  A    between atoms: _492  and  _493
REMARK  194  A    between atoms: _495  and  _497
REMARK  195  A    between atoms: _497  and  _498
REMARK  196  A    between atoms: _497  and  _500
REMARK  197  A    between atoms: _500  and  _501
REMARK  198  A    between atoms: _507  and  _509
REMARK  199  A    between atoms: _509  and  _510
REMARK  200  A    between atoms: _509  and  _512
REMARK  201  A    between atoms: _512  and  _513
REMARK  202  A    between atoms: _518  and  _520
REMARK  203  A    between atoms: _520  and  _521
REMARK  204  A    between atoms: _520  and  _523
REMARK  205  A    between atoms: _523  and  _524
REMARK  206  A    between atoms: _524  and  _525
REMARK  207  A    between atoms: _525  and  _526
REMARK  208  A    between atoms: _526  and  ZN_772
REMARK  209  A    between atoms: _528  and  _530
REMARK  210  A    between atoms: _530  and  _531
REMARK  211  A    between atoms: _534  and  _536
REMARK  212  A    between atoms: _536  and  _537
REMARK  213  A    between atoms: _539  and  _541
REMARK  214  A    between atoms: _541  and  _542
REMARK  215  A    between atoms: _541  and  _544
REMARK  216  A    between atoms: _544  and  _545
REMARK  217  A    between atoms: _548  and  _550
REMARK  218  A    between atoms: _550  and  _551
REMARK  219  A    between atoms: _554  and  _556
REMARK  220  A    between atoms: _556  and  _557
REMARK  221  A    between atoms: _556  and  _559
REMARK  222  A    between atoms: _559  and  _560
REMARK  223  A    between atoms: _563  and  _565
REMARK  224  A    between atoms: _565  and  _566
REMARK  225  A    between atoms: _565  and  _568
REMARK  226  A    between atoms: _568  and  _569
REMARK  227  A    between atoms: _569  and  _570
REMARK  228  A    between atoms: _570  and  _571
REMARK  229  A    between atoms: _571  and  _572
REMARK  230  A    between atoms: _576  and  _578
REMARK  231  A    between atoms: _578  and  _579
REMARK  232  A    between atoms: _578  and  _581
REMARK  233  A    between atoms: _581  and  _582
REMARK  234  A    between atoms: _588  and  _590
REMARK  235  A    between atoms: _590  and  _591
REMARK  236  A    between atoms: _590  and  _593
REMARK  237  A    between atoms: _593  and  _594
REMARK  238  A    between atoms: _600  and  _602
REMARK  239  A    between atoms: _602  and  _603
REMARK  240  A    between atoms: _602  and  _605
REMARK  241  A    between atoms: _605  and  _606
REMARK  242  A    between atoms: _608  and  _610
REMARK  243  A    between atoms: _610  and  _611
REMARK  244  A    between atoms: _610  and  _613
REMARK  245  A    between atoms: _616  and  _618
REMARK  246  A    between atoms: _618  and  _619
REMARK  247  A    between atoms: _618  and  _621
REMARK  248  A    between atoms: _621  and  _622
REMARK  249  A    between atoms: _622  and  _623
REMARK  250  A    between atoms: _623  and  _624
REMARK  251  A    between atoms: _624  and  _625
REMARK  252  A    between atoms: _629  and  _631
REMARK  253  A    between atoms: _631  and  _632
REMARK  254  A    between atoms: _631  and  _634
REMARK  255  A    between atoms: _634  and  _635
REMARK  256  A    between atoms: _641  and  _643
REMARK  257  A    between atoms: _643  and  _644
REMARK  258  A    between atoms: _643  and  _646
REMARK  259  A    between atoms: _646  and  _647
REMARK  260  A    between atoms: _652  and  _654
REMARK  261  A    between atoms: _654  and  _655
REMARK  262  A    between atoms: _654  and  _657
REMARK  263  A    between atoms: _657  and  _658
REMARK  264  A    between atoms: _660  and  _662
REMARK  265  A    between atoms: _662  and  _663
REMARK  266  A    between atoms: _662  and  _665
REMARK  267  A    between atoms: _665  and  _666
REMARK  268  A    between atoms: _668  and  _670
REMARK  269  A    between atoms: _670  and  _671
REMARK  270  A    between atoms: _670  and  _673
REMARK  271  A    between atoms: _677  and  _678
REMARK  272  A    between atoms: _683  and  _685
REMARK  273  A    between atoms: _685  and  _686
REMARK  274  A    between atoms: _685  and  _688
REMARK  275  A    between atoms: _688  and  _689
REMARK  276  A    between atoms: _694  and  _695
REMARK  277  A    between atoms: _697  and  _699
REMARK  278  A    between atoms: _699  and  _700
REMARK  279  A    between atoms: _699  and  _702
REMARK  280  A    between atoms: _702  and  _703
REMARK  281  A    between atoms: _703  and  _704
REMARK  282  A    between atoms: _704  and  _705
REMARK  283  A    between atoms: _714  and  _716
REMARK  284  A    between atoms: _716  and  _717
REMARK  285  A    between atoms: _716  and  _719
REMARK  286  A    between atoms: _719  and  _720
REMARK  287  A    between atoms: _725  and  _726
REMARK  288  A    between atoms: _728  and  _730
REMARK  289  A    between atoms: _730  and  _731
REMARK  290  A    between atoms: _730  and  _733
REMARK  291  A    between atoms: _733  and  _734
REMARK  292  A    between atoms: _740  and  _742
REMARK  293  A    between atoms: _742  and  _743
REMARK  294  A    between atoms: _742  and  _745
REMARK  295  A    between atoms: _745  and  _746
REMARK  296  A    between atoms: _748  and  _750
REMARK  297  A    between atoms: _750  and  _751
REMARK  298  A    between atoms: _750  and  _753
REMARK  299  A    between atoms: _753  and  _754
REMARK  300  A    between atoms: _760  and  _762
REMARK  301  A    between atoms: _762  and  _763
REMARK  302  A    between atoms: _762  and  _765
REMARK  303  A    between atoms: _765  and  _766
REMARK  304  A    between atoms: _766  and  _767
REMARK                            x       y       z     vdW  Elec       q    Type
REMARK                         _______ _______ _______ _____ _____    ______ ____
ROOT
ATOM      1  CA  PHE A   1       6.571  -2.786 -34.145  0.00  0.00    +0.149 C 
ENDROOT
BRANCH   1   2
ATOM      2  C   PHE A   1       6.702  -1.833 -32.972  0.00  0.00    +0.239 C 
ATOM      3  O   PHE A   1       5.750  -1.670 -32.214  0.00  0.00    -0.274 OA
ATOM      4  N   SER A   2       7.880  -1.224 -32.816  0.00  0.00    -0.296 N 
ATOM      5  H   SER A   2       8.646  -1.425 -33.490  0.00  0.00    +0.150 HD
BRANCH   4   6
ATOM      6  CA  SER A   2       8.123  -0.278 -31.719  0.00  0.00    +0.166 C 
BRANCH   6   7
ATOM      7  CB  SER A   2       7.257   0.967 -31.821  0.00  0.00    +0.229 C 
ATOM      8  OG  SER A   2       6.982   1.617 -30.807  0.00  0.00    -0.286 OA
ENDBRANCH   6   7
BRANCH   6   9
ATOM      9  C   SER A   2       9.602   0.117 -31.619  0.00  0.00    +0.165 C 
BRANCH   9  10
ATOM     10  O   SER A   2      10.060   0.756 -32.798  0.00  0.00    -0.380 OA
ATOM     11  H   SER A   2       9.954   0.142 -33.567  0.00  0.00    +0.211 HD
ENDBRANCH   9  10
ENDBRANCH   6   9
ENDBRANCH   4   6
ENDBRANCH   1   2
BRANCH   1  12
ATOM     12  N   PHE A   1       7.025  -2.184 -35.408  0.00  0.00    -0.238 NA
ATOM     13  H   PHE A   1       7.850  -2.581 -35.901  0.00  0.00    +0.142 HD
ENDBRANCH   1  12
BRANCH   1  14
ATOM     14  CB  PHE A   1       7.297  -4.091 -33.811  0.00  0.00    +0.053 C 
BRANCH  14  15
ATOM     15  CG  PHE A   1       6.803  -4.747 -32.543  0.00  0.00    -0.020 A 
ATOM     16  CD2 PHE A   1       7.443  -4.518 -31.322  0.00  0.00    -0.004 A 
ATOM     17  CE2 PHE A   1       6.991  -5.122 -30.150  0.00  0.00    -0.000 A 
ATOM     18  CZ  PHE A   1       5.875  -5.965 -30.189  0.00  0.00    -0.000 A 
ATOM     19  CE1 PHE A   1       5.225  -6.193 -31.395  0.00  0.00    -0.000 A 
ATOM     20  CD1 PHE A   1       5.688  -5.580 -32.565  0.00  0.00    -0.004 A 
ENDBRANCH  14  15
ENDBRANCH   1  14
TORSDOF 8
REMARK  Name = ../refined-set-2016/2xy9/2xy9_pocket.pdb
REMARK  304 active torsions:
REMARK  status: ('A' for Active; 'I' for Inactive)
REMARK    1  A    between atoms: _1  and  _3
REMARK    2  A    between atoms: _3  and  _4
REMARK    3  A    between atoms: _3  and  _6
REMARK    4  A    between atoms: _6  and  _7
REMARK    5  A    between atoms: _12  and  _14
REMARK    6  A    between atoms: _14  and  _15
REMARK    7  A    between atoms: _14  and  _17
REMARK    8  A    between atoms: _17  and  _18
REMARK    9  A    between atoms: _23  and  _25
REMARK   10  A    between atoms: _25  and  _26
REMARK   11  A    between atoms: _25  and  _28
REMARK   12  A    between atoms: _28  and  _29
REMARK   13  A    between atoms: _29  and  _30
REMARK   14  A    between atoms: _33  and  _35
REMARK   15  A    between atoms: _35  and  _36
REMARK   16  A    between atoms: _35  and  _38
REMARK   17  A    between atoms: _38  and  _39
REMARK   18  A    between atoms: _44  and  _45
REMARK   19  A    between atoms: _47  and  _49
REMARK   20  A    between atoms: _49  and  _50
REMARK   21  A    between atoms: _49  and  _52
REMARK   22  A    between atoms: _52  and  _53
REMARK   23  A    between atoms: _56  and  _58
REMARK   24  A    between atoms: _58  and  _59
REMARK   25  A    between atoms: _61  and  _63
REMARK   26  A    between atoms: _63  and  _64
REMARK   27  A    between atoms: _63  and  _66
REMARK   28  A    between atoms: _66  and  _67
REMARK   29  A    between atoms: _72  and  _74
REMARK   30  A    between atoms: _74  and  _75
REMARK   31  A    between atoms: _74  and  _77
REMARK   32  A    between atoms: _77  and  _78
REMARK   33  A    between atoms: _88  and  _90
REMARK   34  A    between atoms: _90  and  _91
REMARK   35  A    between atoms: _90  and  _93
REMARK   36  A    between atoms: _93  and  _94
REMARK   37  A    between atoms: _94  and  _95
REMARK   38  A    between atoms: _100  and  _102
REMARK   39  A    between atoms: _102  and  _103
REMARK   40  A    between atoms: _102  and  _105
REMARK   41  A    between atoms: _105  and  _106
REMARK   42  A    between atoms: _109  and  _111
REMARK   43  A    between atoms: _111  and  _112
REMARK   44  A    between atoms: _111  and  _114
REMARK   45  A    between atoms: _114  and  _115
REMARK   46  A    between atoms: _125  and  _127
REMARK   47  A    between atoms: _127  and  _128
REMARK   48  A    between atoms: _127  and  _130
REMARK   49  A    between atoms: _130  and  _131
REMARK   50  A    between atoms: _133  and  _135
REMARK   51  A    between atoms: _135  and  _136
REMARK   52  A    between atoms: _135  and  _138
REMARK   53  A    between atoms: _138  and  _139
REMARK   54  A    between atoms: _144  and  _146
REMARK   55  A    between atoms: _146  and  _147
REMARK   56  A    between atoms: _146  and  _149
REMARK   57  A    between atoms: _152  and  _154
REMARK   58  A    between atoms: _154  and  _155
REMARK   59  A    between atoms: _154  and  _157
REMARK   60  A    between atoms: _159  and  _161
REMARK   61  A    between atoms: _161  and  _162
REMARK   62  A    between atoms: _161  and  _164
REMARK   63  A    between atoms: _164  and  _165
REMARK   64  A    between atoms: _170  and  _172
REMARK   65  A    between atoms: _172  and  _173
REMARK   66  A    between atoms: _176  and  _178
REMARK   67  A    between atoms: _178  and  _179
REMARK   68  A    between atoms: _178  and  _181
REMARK   69  A    between atoms: _181  and  _182
REMARK   70  A    between atoms: _184  and  _186
REMARK   71  A    between atoms: _186  and  _187
REMARK   72  A    between atoms: _190  and  _192
REMARK   73  A    between atoms: _192  and  _193
REMARK   74  A    between atoms: _192  and  _195
REMARK   75  A    between atoms: _195  and  _196
REMARK   76  A    between atoms: _206  and  _208
REMARK   77  A    between atoms: _208  and  _209
REMARK   78  A    between atoms: _208  and  _211
REMARK   79  A    between atoms: _211  and  _212
REMARK   80  A    between atoms: _215  and  _217
REMARK   81  A    between atoms: _217  and  _218
REMARK   82  A    between atoms: _217  and  _220
REMARK   83  A    between atoms: _220  and  _221
REMARK   84  A    between atoms: _226  and  _227
REMARK   85  A    between atoms: _229  and  _231
REMARK   86  A    between atoms: _231  and  _232
REMARK   87  A    between atoms: _231  and  _234
REMARK   88  A    between atoms: _234  and  _235
REMARK   89  A    between atoms: _235  and  _236
REMARK   90  A    between atoms: _236  and  _237
REMARK   91  A    between atoms: _246  and  _248
REMARK   92  A    between atoms: _248  and  _249
REMARK   93  A    between atoms: _248  and  _251
REMARK   94  A    between atoms: _251  and  _252
REMARK   95  A    between atoms: _255  and  _257
REMARK   96  A    between atoms: _257  and  _258
REMARK   97  A    between atoms: _257  and  _260
REMARK   98  A    between atoms: _260  and  _261
REMARK   99  A    between atoms: _261  and  _262
REMARK  100  A    between atoms: _262  and  _263
REMARK  101  A    between atoms: _263  and  _264
REMARK  102  A    between atoms: _268  and  _270
REMARK  103  A    between atoms: _270  and  _271
REMARK  104  A    between atoms: _270  and  _273
REMARK  105  A    between atoms: _273  and  _274
REMARK  106  A    between atoms: _274  and  _275
REMARK  107  A    between atoms: _280  and  _282
REMARK  108  A    between atoms: _282  and  _283
REMARK  109  A    between atoms: _282  and  _285
REMARK  110  A    between atoms: _285  and  _286
REMARK  111  A    between atoms: _289  and  _291
REMARK  112  A    between atoms: _291  and  _292
REMARK  113  A    between atoms: _291  and  _294
REMARK  114  A    between atoms: _294  and  _295
REMARK  115  A    between atoms: _295  and  _296
REMARK  116  A    between atoms: _299  and  _301
REMARK  117  A    between atoms: _301  and  _302
REMARK  118  A    between atoms: _301  and  _304
REMARK  119  A    between atoms: _304  and  _305
REMARK  120  A    between atoms: _308  and  _310
REMARK  121  A    between atoms: _310  and  _311
REMARK  122  A    between atoms: _310  and  _313
REMARK  123  A    between atoms: _313  and  _314
REMARK  124  A    between atoms: _317  and  _319
REMARK  125  A    between atoms: _319  and  _320
REMARK  126  A    between atoms: _319  and  _322
REMARK  127  A    between atoms: _325  and  _327
REMARK  128  A    between atoms: _327  and  _328
REMARK  129  A    between atoms: _327  and  _330
REMARK  130  A    between atoms: _333  and  _335
REMARK  131  A    between atoms: _335  and  _336
REMARK  132  A    between atoms: _339  and  _341
REMARK  133  A    between atoms: _341  and  _342
REMARK  134  A    between atoms: _341  and  _344
REMARK  135  A    between atoms: _344  and  _345
REMARK  136  A    between atoms: _350  and  _352
REMARK  137  A    between atoms: _352  and  _353
REMARK  138  A    between atoms: _352  and  _355
REMARK  139  A    between atoms: _355  and  _356
REMARK  140  A    between atoms: _360  and  ZN_772
REMARK  141  A    between atoms: _361  and  _363
REMARK  142  A    between atoms: _363  and  _364
REMARK  143  A    between atoms: _363  and  _366
REMARK  144  A    between atoms: _366  and  _367
REMARK  145  A    between atoms: _367  and  _368
REMARK  146  A    between atoms: _371  and  _373
REMARK  147  A    between atoms: _373  and  _374
REMARK  148  A    between atoms: _373  and  _376
REMARK  149  A    between atoms: _376  and  _377
REMARK  150  A    between atoms: _377  and  _378
REMARK  151  A    between atoms: _380  and  _382
REMARK  152  A    between atoms: _382  and  _383
REMARK  153  A    between atoms: _382  and  _385
REMARK  154  A    between atoms: _385  and  _386
REMARK  155  A    between atoms: _390  and  ZN_772
REMARK  156  A    between atoms: _391  and  _393
REMARK  157  A    between atoms: _393  and  _394
REMARK  158  A    between atoms: _393  and  _396
REMARK  159  A    between atoms: _396  and  _397
REMARK  160  A    between atoms: _400  and  _402
REMARK  161  A    between atoms: _402  and  _403
REMARK  162  A    between atoms: _402  and  _405
REMARK  163  A    between atoms: _405  and  _406
REMARK  164  A    between atoms: _411  and  _412
REMARK  165  A    between atoms: _414  and  _416
REMARK  166  A    between atoms: _416  and  _417
REMARK  167  A    between atoms: _416  and  _419
REMARK  168  A    between atoms: _419  and  _420
REMARK  169  A    between atoms: _426  and  _428
REMARK  170  A    between atoms: _428  and  _429
REMARK  171  A    between atoms: _428  and  _431
REMARK  172  A    between atoms: _431  and  _432
REMARK  173  A    between atoms: _437  and  _438
REMARK  174  A    between atoms: _440  and  _442
REMARK  175  A    between atoms: _442  and  _443
REMARK  176  A    between atoms: _442  and  _445
REMARK  177  A    between atoms: _445  and  _446
REMARK  178  A    between atoms: _446  and  _447
REMARK  179  A    between atoms: _447  and  _448
REMARK  180  A    between atoms: _457  and  _459
REMARK  181  A    between atoms: _459  and  _460
REMARK  182  A    between atoms: _459  and  _462
REMARK  183  A    between atoms: _462  and  _463
REMARK  184  A    between atoms: _463  and  _464
REMARK  185  A    between atoms: _467  and  _469
REMARK  186  A    between atoms: _469  and  _470
REMARK  187  A    between atoms: _472  and  _474
REMARK  188  A    between atoms: _474  and  _475
REMARK  189  A    between atoms: _474  and  _477
REMARK  190  A    between atoms: _477  and  _478
REMARK  191  A    between atoms: _484  and  _485
REMARK  192  A    between atoms: _490  and  _492
REMARK  193  A    between atoms: _492  and  _493
REMARK  194  A    between atoms: _495  and  _497
REMARK  195  A    between atoms: _497  and  _498
REMARK  196  A    between atoms: _497  and  _500
REMARK  197  A    between atoms: _500  and  _501
REMARK  198  A    between atoms: _507  and  _509
REMARK  199  A    between atoms: _509  and  _510
REMARK  200  A    between atoms: _509  and  _512
REMARK  201  A    between atoms: _512  and  _513
REMARK  202  A    between atoms: _518  and  _520
REMARK  203  A    between atoms: _520  and  _521
REMARK  204  A    between atoms: _520  and  _523
REMARK  205  A    between atoms: _523  and  _524
REMARK  206  A    between atoms: _524  and  _525
REMARK  207  A    between atoms: _525  and  _526
REMARK  208  A    between atoms: _526  and  ZN_772
REMARK  209  A    between atoms: _528  and  _530
REMARK  210  A    between atoms: _530  and  _531
REMARK  211  A    between atoms: _534  and  _536
REMARK  212  A    between atoms: _536  and  _537
REMARK  213  A    between atoms: _539  and  _541
REMARK  214  A    between atoms: _541  and  _542
REMARK  215  A    between atoms: _541  and  _544
REMARK  216  A    between atoms: _544  and  _545
REMARK  217  A    between atoms: _548  and  _550
REMARK  218  A    between atoms: _550  and  _551
REMARK  219  A    between atoms: _554  and  _556
REMARK  220  A    between atoms: _556  and  _557
REMARK  221  A    between atoms: _556  and  _559
REMARK  222  A    between atoms: _559  and  _560
REMARK  223  A    between atoms: _563  and  _565
REMARK  224  A    between atoms: _565  and  _566
REMARK  225  A    between atoms: _565  and  _568
REMARK  226  A    between atoms: _568  and  _569
REMARK  227  A    between atoms: _569  and  _570
REMARK  228  A    between atoms: _570  and  _571
REMARK  229  A    between atoms: _571  and  _572
REMARK  230  A    between atoms: _576  and  _578
REMARK  231  A    between atoms: _578  and  _579
REMARK  232  A    between atoms: _578  and  _581
REMARK  233  A    between atoms: _581  and  _582
REMARK  234  A    between atoms: _588  and  _590
REMARK  235  A    between atoms: _590  and  _591
REMARK  236  A    between atoms: _590  and  _593
REMARK  237  A    between atoms: _593  and  _594
REMARK  238  A    between atoms: _600  and  _602
REMARK  239  A    between atoms: _602  and  _603
REMARK  240  A    between atoms: _602  and  _605
REMARK  241  A    between atoms: _605  and  _606
REMARK  242  A    between atoms: _608  and  _610
REMARK  243  A    between atoms: _610  and  _611
REMARK  244  A    between atoms: _610  and  _613
REMARK  245  A    between atoms: _616  and  _618
REMARK  246  A    between atoms: _618  and  _619
REMARK  247  A    between atoms: _618  and  _621
REMARK  248  A    between atoms: _621  and  _622
REMARK  249  A    between atoms: _622  and  _623
REMARK  250  A    between atoms: _623  and  _624
REMARK  251  A    between atoms: _624  and  _625
REMARK  252  A    between atoms: _629  and  _631
REMARK  253  A    between atoms: _631  and  _632
REMARK  254  A    between atoms: _631  and  _634
REMARK  255  A    between atoms: _634  and  _635
REMARK  256  A    between atoms: _641  and  _643
REMARK  257  A    between atoms: _643  and  _644
REMARK  258  A    between atoms: _643  and  _646
REMARK  259  A    between atoms: _646  and  _647
REMARK  260  A    between atoms: _652  and  _654
REMARK  261  A    between atoms: _654  and  _655
REMARK  262  A    between atoms: _654  and  _657
REMARK  263  A    between atoms: _657  and  _658
REMARK  264  A    between atoms: _660  and  _662
REMARK  265  A    between atoms: _662  and  _663
REMARK  266  A    between atoms: _662  and  _665
REMARK  267  A    between atoms: _665  and  _666
REMARK  268  A    between atoms: _668  and  _670
REMARK  269  A    between atoms: _670  and  _671
REMARK  270  A    between atoms: _670  and  _673
REMARK  271  A    between atoms: _677  and  _678
REMARK  272  A    between atoms: _683  and  _685
REMARK  273  A    between atoms: _685  and  _686
REMARK  274  A    between atoms: _685  and  _688
REMARK  275  A    between atoms: _688  and  _689
REMARK  276  A    between atoms: _694  and  _695
REMARK  277  A    between atoms: _697  and  _699
REMARK  278  A    between atoms: _699  and  _700
REMARK  279  A    between atoms: _699  and  _702
REMARK  280  A    between atoms: _702  and  _703
REMARK  281  A    between atoms: _703  and  _704
REMARK  282  A    between atoms: _704  and  _705
REMARK  283  A    between atoms: _714  and  _716
REMARK  284  A    between atoms: _716  and  _717
REMARK  285  A    between atoms: _716  and  _719
REMARK  286  A    between atoms: _719  and  _720
REMARK  287  A    between atoms: _725  and  _726
REMARK  288  A    between atoms: _728  and  _730
REMARK  289  A    between atoms: _730  and  _731
REMARK  290  A    between atoms: _730  and  _733
REMARK  291  A    between atoms: _733  and  _734
REMARK  292  A    between atoms: _740  and  _742
REMARK  293  A    between atoms: _742  and  _743
REMARK  294  A    between atoms: _742  and  _745
REMARK  295  A    between atoms: _745  and  _746
REMARK  296  A    between atoms: _748  and  _750
REMARK  297  A    between atoms: _750  and  _751
REMARK  298  A    between atoms: _750  and  _753
REMARK  299  A    between atoms: _753  and  _754
REMARK  300  A    between atoms: _760  and  _762
REMARK  301  A    between atoms: _762  and  _763
REMARK  302  A    between atoms: _762  and  _765
REMARK  303  A    between atoms: _765  and  _766
REMARK  304  A    between atoms: _766  and  _767
REMARK                            x       y       z     vdW  Elec       q    Type
REMARK                         _______ _______ _______ _____ _____    ______ ____
ROOT
ATOM      1  CA  VAL A   1       2.801  -0.677 -29.274  0.00  0.00    +0.133 C 
ENDROOT
BRANCH   1   2
ATOM      2  CB  VAL A   1       4.030  -1.243 -28.513  0.00  0.00    +0.023 C 
ATOM      3  CG2 VAL A   1       3.683  -1.531 -27.046  0.00  0.00    +0.002 C 
ATOM      4  CG1 VAL A   1       4.544  -2.507 -29.190  0.00  0.00    +0.002 C 
ENDBRANCH   1   2
BRANCH   1   5
ATOM      5  N   VAL A   1       3.128  -0.269 -30.645  0.00  0.00    -0.239 NA
ATOM      6  H   VAL A   1       4.094  -0.418 -31.001  0.00  0.00    +0.142 HD
ENDBRANCH   1   5
BRANCH   1   7
ATOM      7  C   VAL A   1       2.149   0.458 -28.490  0.00  0.00    +0.224 C 
ATOM      8  O   VAL A   1       1.078   0.279 -27.902  0.00  0.00    -0.287 OA
ENDBRANCH   1   7
TORSDOF 3
REMARK  Name = ../refined-set-2016/2xy9/2xy9_pocket.pdb
REMARK  304 active torsions:
REMARK  status: ('A' for Active; 'I' for Inactive)
REMARK    1  A    between atoms: _1  and  _3
REMARK    2  A    between atoms: _3  and  _4
REMARK    3  A    between atoms: _3  and  _6
REMARK    4  A    between atoms: _6  and  _7
REMARK    5  A    between atoms: _12  and  _14
REMARK    6  A    between atoms: _14  and  _15
REMARK    7  A    between atoms: _14  and  _17
REMARK    8  A    between atoms: _17  and  _18
REMARK    9  A    between atoms: _23  and  _25
REMARK   10  A    between atoms: _25  and  _26
REMARK   11  A    between atoms: _25  and  _28
REMARK   12  A    between atoms: _28  and  _29
REMARK   13  A    between atoms: _29  and  _30
REMARK   14  A    between atoms: _33  and  _35
REMARK   15  A    between atoms: _35  and  _36
REMARK   16  A    between atoms: _35  and  _38
REMARK   17  A    between atoms: _38  and  _39
REMARK   18  A    between atoms: _44  and  _45
REMARK   19  A    between atoms: _47  and  _49
REMARK   20  A    between atoms: _49  and  _50
REMARK   21  A    between atoms: _49  and  _52
REMARK   22  A    between atoms: _52  and  _53
REMARK   23  A    between atoms: _56  and  _58
REMARK   24  A    between atoms: _58  and  _59
REMARK   25  A    between atoms: _61  and  _63
REMARK   26  A    between atoms: _63  and  _64
REMARK   27  A    between atoms: _63  and  _66
REMARK   28  A    between atoms: _66  and  _67
REMARK   29  A    between atoms: _72  and  _74
REMARK   30  A    between atoms: _74  and  _75
REMARK   31  A    between atoms: _74  and  _77
REMARK   32  A    between atoms: _77  and  _78
REMARK   33  A    between atoms: _88  and  _90
REMARK   34  A    between atoms: _90  and  _91
REMARK   35  A    between atoms: _90  and  _93
REMARK   36  A    between atoms: _93  and  _94
REMARK   37  A    between atoms: _94  and  _95
REMARK   38  A    between atoms: _100  and  _102
REMARK   39  A    between atoms: _102  and  _103
REMARK   40  A    between atoms: _102  and  _105
REMARK   41  A    between atoms: _105  and  _106
REMARK   42  A    between atoms: _109  and  _111
REMARK   43  A    between atoms: _111  and  _112
REMARK   44  A    between atoms: _111  and  _114
REMARK   45  A    between atoms: _114  and  _115
REMARK   46  A    between atoms: _125  and  _127
REMARK   47  A    between atoms: _127  and  _128
REMARK   48  A    between atoms: _127  and  _130
REMARK   49  A    between atoms: _130  and  _131
REMARK   50  A    between atoms: _133  and  _135
REMARK   51  A    between atoms: _135  and  _136
REMARK   52  A    between atoms: _135  and  _138
REMARK   53  A    between atoms: _138  and  _139
REMARK   54  A    between atoms: _144  and  _146
REMARK   55  A    between atoms: _146  and  _147
REMARK   56  A    between atoms: _146  and  _149
REMARK   57  A    between atoms: _152  and  _154
REMARK   58  A    between atoms: _154  and  _155
REMARK   59  A    between atoms: _154  and  _157
REMARK   60  A    between atoms: _159  and  _161
REMARK   61  A    between atoms: _161  and  _162
REMARK   62  A    between atoms: _161  and  _164
REMARK   63  A    between atoms: _164  and  _165
REMARK   64  A    between atoms: _170  and  _172
REMARK   65  A    between atoms: _172  and  _173
REMARK   66  A    between atoms: _176  and  _178
REMARK   67  A    between atoms: _178  and  _179
REMARK   68  A    between atoms: _178  and  _181
REMARK   69  A    between atoms: _181  and  _182
REMARK   70  A    between atoms: _184  and  _186
REMARK   71  A    between atoms: _186  and  _187
REMARK   72  A    between atoms: _190  and  _192
REMARK   73  A    between atoms: _192  and  _193
REMARK   74  A    between atoms: _192  and  _195
REMARK   75  A    between atoms: _195  and  _196
REMARK   76  A    between atoms: _206  and  _208
REMARK   77  A    between atoms: _208  and  _209
REMARK   78  A    between atoms: _208  and  _211
REMARK   79  A    between atoms: _211  and  _212
REMARK   80  A    between atoms: _215  and  _217
REMARK   81  A    between atoms: _217  and  _218
REMARK   82  A    between atoms: _217  and  _220
REMARK   83  A    between atoms: _220  and  _221
REMARK   84  A    between atoms: _226  and  _227
REMARK   85  A    between atoms: _229  and  _231
REMARK   86  A    between atoms: _231  and  _232
REMARK   87  A    between atoms: _231  and  _234
REMARK   88  A    between atoms: _234  and  _235
REMARK   89  A    between atoms: _235  and  _236
REMARK   90  A    between atoms: _236  and  _237
REMARK   91  A    between atoms: _246  and  _248
REMARK   92  A    between atoms: _248  and  _249
REMARK   93  A    between atoms: _248  and  _251
REMARK   94  A    between atoms: _251  and  _252
REMARK   95  A    between atoms: _255  and  _257
REMARK   96  A    between atoms: _257  and  _258
REMARK   97  A    between atoms: _257  and  _260
REMARK   98  A    between atoms: _260  and  _261
REMARK   99  A    between atoms: _261  and  _262
REMARK  100  A    between atoms: _262  and  _263
REMARK  101  A    between atoms: _263  and  _264
REMARK  102  A    between atoms: _268  and  _270
REMARK  103  A    between atoms: _270  and  _271
REMARK  104  A    between atoms: _270  and  _273
REMARK  105  A    between atoms: _273  and  _274
REMARK  106  A    between atoms: _274  and  _275
REMARK  107  A    between atoms: _280  and  _282
REMARK  108  A    between atoms: _282  and  _283
REMARK  109  A    between atoms: _282  and  _285
REMARK  110  A    between atoms: _285  and  _286
REMARK  111  A    between atoms: _289  and  _291
REMARK  112  A    between atoms: _291  and  _292
REMARK  113  A    between atoms: _291  and  _294
REMARK  114  A    between atoms: _294  and  _295
REMARK  115  A    between atoms: _295  and  _296
REMARK  116  A    between atoms: _299  and  _301
REMARK  117  A    between atoms: _301  and  _302
REMARK  118  A    between atoms: _301  and  _304
REMARK  119  A    between atoms: _304  and  _305
REMARK  120  A    between atoms: _308  and  _310
REMARK  121  A    between atoms: _310  and  _311
REMARK  122  A    between atoms: _310  and  _313
REMARK  123  A    between atoms: _313  and  _314
REMARK  124  A    between atoms: _317  and  _319
REMARK  125  A    between atoms: _319  and  _320
REMARK  126  A    between atoms: _319  and  _322
REMARK  127  A    between atoms: _325  and  _327
REMARK  128  A    between atoms: _327  and  _328
REMARK  129  A    between atoms: _327  and  _330
REMARK  130  A    between atoms: _333  and  _335
REMARK  131  A    between atoms: _335  and  _336
REMARK  132  A    between atoms: _339  and  _341
REMARK  133  A    between atoms: _341  and  _342
REMARK  134  A    between atoms: _341  and  _344
REMARK  135  A    between atoms: _344  and  _345
REMARK  136  A    between atoms: _350  and  _352
REMARK  137  A    between atoms: _352  and  _353
REMARK  138  A    between atoms: _352  and  _355
REMARK  139  A    between atoms: _355  and  _356
REMARK  140  A    between atoms: _360  and  ZN_772
REMARK  141  A    between atoms: _361  and  _363
REMARK  142  A    between atoms: _363  and  _364
REMARK  143  A    between atoms: _363  and  _366
REMARK  144  A    between atoms: _366  and  _367
REMARK  145  A    between atoms: _367  and  _368
REMARK  146  A    between atoms: _371  and  _373
REMARK  147  A    between atoms: _373  and  _374
REMARK  148  A    between atoms: _373  and  _376
REMARK  149  A    between atoms: _376  and  _377
REMARK  150  A    between atoms: _377  and  _378
REMARK  151  A    between atoms: _380  and  _382
REMARK  152  A    between atoms: _382  and  _383
REMARK  153  A    between atoms: _382  and  _385
REMARK  154  A    between atoms: _385  and  _386
REMARK  155  A    between atoms: _390  and  ZN_772
REMARK  156  A    between atoms: _391  and  _393
REMARK  157  A    between atoms: _393  and  _394
REMARK  158  A    between atoms: _393  and  _396
REMARK  159  A    between atoms: _396  and  _397
REMARK  160  A    between atoms: _400  and  _402
REMARK  161  A    between atoms: _402  and  _403
REMARK  162  A    between atoms: _402  and  _405
REMARK  163  A    between atoms: _405  and  _406
REMARK  164  A    between atoms: _411  and  _412
REMARK  165  A    between atoms: _414  and  _416
REMARK  166  A    between atoms: _416  and  _417
REMARK  167  A    between atoms: _416  and  _419
REMARK  168  A    between atoms: _419  and  _420
REMARK  169  A    between atoms: _426  and  _428
REMARK  170  A    between atoms: _428  and  _429
REMARK  171  A    between atoms: _428  and  _431
REMARK  172  A    between atoms: _431  and  _432
REMARK  173  A    between atoms: _437  and  _438
REMARK  174  A    between atoms: _440  and  _442
REMARK  175  A    between atoms: _442  and  _443
REMARK  176  A    between atoms: _442  and  _445
REMARK  177  A    between atoms: _445  and  _446
REMARK  178  A    between atoms: _446  and  _447
REMARK  179  A    between atoms: _447  and  _448
REMARK  180  A    between atoms: _457  and  _459
REMARK  181  A    between atoms: _459  and  _460
REMARK  182  A    between atoms: _459  and  _462
REMARK  183  A    between atoms: _462  and  _463
REMARK  184  A    between atoms: _463  and  _464
REMARK  185  A    between atoms: _467  and  _469
REMARK  186  A    between atoms: _469  and  _470
REMARK  187  A    between atoms: _472  and  _474
REMARK  188  A    between atoms: _474  and  _475
REMARK  189  A    between atoms: _474  and  _477
REMARK  190  A    between atoms: _477  and  _478
REMARK  191  A    between atoms: _484  and  _485
REMARK  192  A    between atoms: _490  and  _492
REMARK  193  A    between atoms: _492  and  _493
REMARK  194  A    between atoms: _495  and  _497
REMARK  195  A    between atoms: _497  and  _498
REMARK  196  A    between atoms: _497  and  _500
REMARK  197  A    between atoms: _500  and  _501
REMARK  198  A    between atoms: _507  and  _509
REMARK  199  A    between atoms: _509  and  _510
REMARK  200  A    between atoms: _509  and  _512
REMARK  201  A    between atoms: _512  and  _513
REMARK  202  A    between atoms: _518  and  _520
REMARK  203  A    between atoms: _520  and  _521
REMARK  204  A    between atoms: _520  and  _523
REMARK  205  A    between atoms: _523  and  _524
REMARK  206  A    between atoms: _524  and  _525
REMARK  207  A    between atoms: _525  and  _526
REMARK  208  A    between atoms: _526  and  ZN_772
REMARK  209  A    between atoms: _528  and  _530
REMARK  210  A    between atoms: _530  and  _531
REMARK  211  A    between atoms: _534  and  _536
REMARK  212  A    between atoms: _536  and  _537
REMARK  213  A    between atoms: _539  and  _541
REMARK  214  A    between atoms: _541  and  _542
REMARK  215  A    between atoms: _541  and  _544
REMARK  216  A    between atoms: _544  and  _545
REMARK  217  A    between atoms: _548  and  _550
REMARK  218  A    between atoms: _550  and  _551
REMARK  219  A    between atoms: _554  and  _556
REMARK  220  A    between atoms: _556  and  _557
REMARK  221  A    between atoms: _556  and  _559
REMARK  222  A    between atoms: _559  and  _560
REMARK  223  A    between atoms: _563  and  _565
REMARK  224  A    between atoms: _565  and  _566
REMARK  225  A    between atoms: _565  and  _568
REMARK  226  A    between atoms: _568  and  _569
REMARK  227  A    between atoms: _569  and  _570
REMARK  228  A    between atoms: _570  and  _571
REMARK  229  A    between atoms: _571  and  _572
REMARK  230  A    between atoms: _576  and  _578
REMARK  231  A    between atoms: _578  and  _579
REMARK  232  A    between atoms: _578  and  _581
REMARK  233  A    between atoms: _581  and  _582
REMARK  234  A    between atoms: _588  and  _590
REMARK  235  A    between atoms: _590  and  _591
REMARK  236  A    between atoms: _590  and  _593
REMARK  237  A    between atoms: _593  and  _594
REMARK  238  A    between atoms: _600  and  _602
REMARK  239  A    between atoms: _602  and  _603
REMARK  240  A    between atoms: _602  and  _605
REMARK  241  A    between atoms: _605  and  _606
REMARK  242  A    between atoms: _608  and  _610
REMARK  243  A    between atoms: _610  and  _611
REMARK  244  A    between atoms: _610  and  _613
REMARK  245  A    between atoms: _616  and  _618
REMARK  246  A    between atoms: _618  and  _619
REMARK  247  A    between atoms: _618  and  _621
REMARK  248  A    between atoms: _621  and  _622
REMARK  249  A    between atoms: _622  and  _623
REMARK  250  A    between atoms: _623  and  _624
REMARK  251  A    between atoms: _624  and  _625
REMARK  252  A    between atoms: _629  and  _631
REMARK  253  A    between atoms: _631  and  _632
REMARK  254  A    between atoms: _631  and  _634
REMARK  255  A    between atoms: _634  and  _635
REMARK  256  A    between atoms: _641  and  _643
REMARK  257  A    between atoms: _643  and  _644
REMARK  258  A    between atoms: _643  and  _646
REMARK  259  A    between atoms: _646  and  _647
REMARK  260  A    between atoms: _652  and  _654
REMARK  261  A    between atoms: _654  and  _655
REMARK  262  A    between atoms: _654  and  _657
REMARK  263  A    between atoms: _657  and  _658
REMARK  264  A    between atoms: _660  and  _662
REMARK  265  A    between atoms: _662  and  _663
REMARK  266  A    between atoms: _662  and  _665
REMARK  267  A    between atoms: _665  and  _666
REMARK  268  A    between atoms: _668  and  _670
REMARK  269  A    between atoms: _670  and  _671
REMARK  270  A    between atoms: _670  and  _673
REMARK  271  A    between atoms: _677  and  _678
REMARK  272  A    between atoms: _683  and  _685
REMARK  273  A    between atoms: _685  and  _686
REMARK  274  A    between atoms: _685  and  _688
REMARK  275  A    between atoms: _688  and  _689
REMARK  276  A    between atoms: _694  and  _695
REMARK  277  A    between atoms: _697  and  _699
REMARK  278  A    between atoms: _699  and  _700
REMARK  279  A    between atoms: _699  and  _702
REMARK  280  A    between atoms: _702  and  _703
REMARK  281  A    between atoms: _703  and  _704
REMARK  282  A    between atoms: _704  and  _705
REMARK  283  A    between atoms: _714  and  _716
REMARK  284  A    between atoms: _716  and  _717
REMARK  285  A    between atoms: _716  and  _719
REMARK  286  A    between atoms: _719  and  _720
REMARK  287  A    between atoms: _725  and  _726
REMARK  288  A    between atoms: _728  and  _730
REMARK  289  A    between atoms: _730  and  _731
REMARK  290  A    between atoms: _730  and  _733
REMARK  291  A    between atoms: _733  and  _734
REMARK  292  A    between atoms: _740  and  _742
REMARK  293  A    between atoms: _742  and  _743
REMARK  294  A    between atoms: _742  and  _745
REMARK  295  A    between atoms: _745  and  _746
REMARK  296  A    between atoms: _748  and  _750
REMARK  297  A    between atoms: _750  and  _751
REMARK  298  A    between atoms: _750  and  _753
REMARK  299  A    between atoms: _753  and  _754
REMARK  300  A    between atoms: _760  and  _762
REMARK  301  A    between atoms: _762  and  _763
REMARK  302  A    between atoms: _762  and  _765
REMARK  303  A    between atoms: _765  and  _766
REMARK  304  A    between atoms: _766  and  _767
REMARK                            x       y       z     vdW  Elec       q    Type
REMARK                         _______ _______ _______ _____ _____    ______ ____
ROOT
ATOM      1  CA  PHE A   2       6.162  -8.186 -21.377  0.00  0.00    +0.153 C 
ENDROOT
BRANCH   1   4
ATOM      2  C   LYS A   1       4.494  -8.297 -23.197  0.00  0.00    +0.238 C 
ATOM      3  O   LYS A   1       3.711  -7.529 -22.652  0.00  0.00    -0.274 OA
ATOM      4  N   PHE A   2       5.688  -8.610 -22.699  0.00  0.00    -0.297 N 
ATOM      5  H   PHE A   2       6.324  -9.190 -23.283  0.00  0.00    +0.150 HD
BRANCH   2   6
ATOM      6  CA  LYS A   1       4.120  -8.964 -24.512  0.00  0.00    +0.145 C 
BRANCH   6   7
ATOM      7  N   LYS A   1       2.907  -9.734 -24.293  0.00  0.00    -0.238 NA
ATOM      8  H   LYS A   1       2.026  -9.222 -24.084  0.00  0.00    +0.142 HD
ENDBRANCH   6   7
BRANCH   6   9
ATOM      9  CB  LYS A   1       3.890  -7.918 -25.619  0.00  0.00    +0.026 C 
BRANCH   9  10
ATOM     10  CG  LYS A   1       5.060  -6.954 -25.854  0.00  0.00    -0.000 C 
BRANCH  10  11
ATOM     11  CD  LYS A   1       6.291  -7.664 -26.410  0.00  0.00    -0.024 C 
BRANCH  11  12
ATOM     12  CE  LYS A   1       7.535  -6.796 -26.273  0.00  0.00    -0.086 C 
BRANCH  12  13
ATOM     13  NZ  LYS A   1       8.747  -7.570 -26.643  0.00  0.00    +0.380 N 
ATOM     14  HZ1 LYS A   1       8.836  -8.394 -26.014  0.00  0.00    -0.089 HD
ATOM     15  HZ2 LYS A   1       9.587  -6.965 -26.544  0.00  0.00    -0.089 HD
ATOM     16  HZ3 LYS A   1       8.664  -7.892 -27.628  0.00  0.00    -0.089 HD
ENDBRANCH  12  13
ENDBRANCH  11  12
ENDBRANCH  10  11
ENDBRANCH   9  10
ENDBRANCH   6   9
ENDBRANCH   2   6
ENDBRANCH   1   4
BRANCH   1  17
ATOM     17  C   PHE A   2       5.746  -6.784 -20.940  0.00  0.00    +0.241 C 
ATOM     18  O   PHE A   2       5.192  -6.608 -19.855  0.00  0.00    -0.273 OA
ATOM     19  N   HIS A   3       6.018  -5.798 -21.793  0.00  0.00    -0.298 N 
ATOM     20  H   HIS A   3       6.317  -6.039 -22.760  0.00  0.00    +0.150 HD
BRANCH  19  21
ATOM     21  CA  HIS A   3       5.911  -4.389 -21.418  0.00  0.00    +0.143 C 
BRANCH  21  22
ATOM     22  C   HIS A   3       4.479  -3.947 -21.130  0.00  0.00    +0.227 C 
ATOM     23  O   HIS A   3       4.261  -2.924 -20.491  0.00  0.00    -0.286 OA
ENDBRANCH  21  22
BRANCH  21  24
ATOM     24  CB  HIS A   3       6.555  -3.516 -22.495  0.00  0.00    +0.075 C 
BRANCH  24  25
ATOM     25  CG  HIS A   3       7.989  -3.862 -22.750  0.00  0.00    +0.082 A 
ATOM     26  CD2 HIS A   3       9.131  -3.182 -22.493  0.00  0.00    +0.115 A 
ATOM     27  NE2 HIS A   3      10.174  -3.972 -22.909  0.00  0.00    -0.221 NA
ATOM     28  CE1 HIS A   3       9.692  -5.101 -23.396  0.00  0.00    +0.199 A 
ATOM     29  ND1 HIS A   3       8.374  -5.065 -23.305  0.00  0.00    -0.227 NA
ENDBRANCH  24  25
ENDBRANCH  21  24
ENDBRANCH  19  21
ENDBRANCH   1  17
BRANCH   1  30
ATOM     30  CB  PHE A   2       7.693  -8.317 -21.290  0.00  0.00    +0.055 C 
BRANCH  30  31
ATOM     31  CG  PHE A   2       8.276  -7.771 -20.014  0.00  0.00    -0.020 A 
ATOM     32  CD2 PHE A   2       8.285  -8.544 -18.851  0.00  0.00    -0.004 A 
ATOM     33  CE2 PHE A   2       8.820  -8.043 -17.667  0.00  0.00    -0.000 A 
ATOM     34  CZ  PHE A   2       9.354  -6.757 -17.637  0.00  0.00    -0.000 A 
ATOM     35  CE1 PHE A   2       9.348  -5.975 -18.791  0.00  0.00    -0.000 A 
ATOM     36  CD1 PHE A   2       8.814  -6.485 -19.972  0.00  0.00    -0.004 A 
ENDBRANCH  30  31
ENDBRANCH   1  30
TORSDOF 15
REMARK  Name = ../refined-set-2016/2xy9/2xy9_pocket.pdb
REMARK  304 active torsions:
REMARK  status: ('A' for Active; 'I' for Inactive)
REMARK    1  A    between atoms: _1  and  _3
REMARK    2  A    between atoms: _3  and  _4
REMARK    3  A    between atoms: _3  and  _6
REMARK    4  A    between atoms: _6  and  _7
REMARK    5  A    between atoms: _12  and  _14
REMARK    6  A    between atoms: _14  and  _15
REMARK    7  A    between atoms: _14  and  _17
REMARK    8  A    between atoms: _17  and  _18
REMARK    9  A    between atoms: _23  and  _25
REMARK   10  A    between atoms: _25  and  _26
REMARK   11  A    between atoms: _25  and  _28
REMARK   12  A    between atoms: _28  and  _29
REMARK   13  A    between atoms: _29  and  _30
REMARK   14  A    between atoms: _33  and  _35
REMARK   15  A    between atoms: _35  and  _36
REMARK   16  A    between atoms: _35  and  _38
REMARK   17  A    between atoms: _38  and  _39
REMARK   18  A    between atoms: _44  and  _45
REMARK   19  A    between atoms: _47  and  _49
REMARK   20  A    between atoms: _49  and  _50
REMARK   21  A    between atoms: _49  and  _52
REMARK   22  A    between atoms: _52  and  _53
REMARK   23  A    between atoms: _56  and  _58
REMARK   24  A    between atoms: _58  and  _59
REMARK   25  A    between atoms: _61  and  _63
REMARK   26  A    between atoms: _63  and  _64
REMARK   27  A    between atoms: _63  and  _66
REMARK   28  A    between atoms: _66  and  _67
REMARK   29  A    between atoms: _72  and  _74
REMARK   30  A    between atoms: _74  and  _75
REMARK   31  A    between atoms: _74  and  _77
REMARK   32  A    between atoms: _77  and  _78
REMARK   33  A    between atoms: _88  and  _90
REMARK   34  A    between atoms: _90  and  _91
REMARK   35  A    between atoms: _90  and  _93
REMARK   36  A    between atoms: _93  and  _94
REMARK   37  A    between atoms: _94  and  _95
REMARK   38  A    between atoms: _100  and  _102
REMARK   39  A    between atoms: _102  and  _103
REMARK   40  A    between atoms: _102  and  _105
REMARK   41  A    between atoms: _105  and  _106
REMARK   42  A    between atoms: _109  and  _111
REMARK   43  A    between atoms: _111  and  _112
REMARK   44  A    between atoms: _111  and  _114
REMARK   45  A    between atoms: _114  and  _115
REMARK   46  A    between atoms: _125  and  _127
REMARK   47  A    between atoms: _127  and  _128
REMARK   48  A    between atoms: _127  and  _130
REMARK   49  A    between atoms: _130  and  _131
REMARK   50  A    between atoms: _133  and  _135
REMARK   51  A    between atoms: _135  and  _136
REMARK   52  A    between atoms: _135  and  _138
REMARK   53  A    between atoms: _138  and  _139
REMARK   54  A    between atoms: _144  and  _146
REMARK   55  A    between atoms: _146  and  _147
REMARK   56  A    between atoms: _146  and  _149
REMARK   57  A    between atoms: _152  and  _154
REMARK   58  A    between atoms: _154  and  _155
REMARK   59  A    between atoms: _154  and  _157
REMARK   60  A    between atoms: _159  and  _161
REMARK   61  A    between atoms: _161  and  _162
REMARK   62  A    between atoms: _161  and  _164
REMARK   63  A    between atoms: _164  and  _165
REMARK   64  A    between atoms: _170  and  _172
REMARK   65  A    between atoms: _172  and  _173
REMARK   66  A    between atoms: _176  and  _178
REMARK   67  A    between atoms: _178  and  _179
REMARK   68  A    between atoms: _178  and  _181
REMARK   69  A    between atoms: _181  and  _182
REMARK   70  A    between atoms: _184  and  _186
REMARK   71  A    between atoms: _186  and  _187
REMARK   72  A    between atoms: _190  and  _192
REMARK   73  A    between atoms: _192  and  _193
REMARK   74  A    between atoms: _192  and  _195
REMARK   75  A    between atoms: _195  and  _196
REMARK   76  A    between atoms: _206  and  _208
REMARK   77  A    between atoms: _208  and  _209
REMARK   78  A    between atoms: _208  and  _211
REMARK   79  A    between atoms: _211  and  _212
REMARK   80  A    between atoms: _215  and  _217
REMARK   81  A    between atoms: _217  and  _218
REMARK   82  A    between atoms: _217  and  _220
REMARK   83  A    between atoms: _220  and  _221
REMARK   84  A    between atoms: _226  and  _227
REMARK   85  A    between atoms: _229  and  _231
REMARK   86  A    between atoms: _231  and  _232
REMARK   87  A    between atoms: _231  and  _234
REMARK   88  A    between atoms: _234  and  _235
REMARK   89  A    between atoms: _235  and  _236
REMARK   90  A    between atoms: _236  and  _237
REMARK   91  A    between atoms: _246  and  _248
REMARK   92  A    between atoms: _248  and  _249
REMARK   93  A    between atoms: _248  and  _251
REMARK   94  A    between atoms: _251  and  _252
REMARK   95  A    between atoms: _255  and  _257
REMARK   96  A    between atoms: _257  and  _258
REMARK   97  A    between atoms: _257  and  _260
REMARK   98  A    between atoms: _260  and  _261
REMARK   99  A    between atoms: _261  and  _262
REMARK  100  A    between atoms: _262  and  _263
REMARK  101  A    between atoms: _263  and  _264
REMARK  102  A    between atoms: _268  and  _270
REMARK  103  A    between atoms: _270  and  _271
REMARK  104  A    between atoms: _270  and  _273
REMARK  105  A    between atoms: _273  and  _274
REMARK  106  A    between atoms: _274  and  _275
REMARK  107  A    between atoms: _280  and  _282
REMARK  108  A    between atoms: _282  and  _283
REMARK  109  A    between atoms: _282  and  _285
REMARK  110  A    between atoms: _285  and  _286
REMARK  111  A    between atoms: _289  and  _291
REMARK  112  A    between atoms: _291  and  _292
REMARK  113  A    between atoms: _291  and  _294
REMARK  114  A    between atoms: _294  and  _295
REMARK  115  A    between atoms: _295  and  _296
REMARK  116  A    between atoms: _299  and  _301
REMARK  117  A    between atoms: _301  and  _302
REMARK  118  A    between atoms: _301  and  _304
REMARK  119  A    between atoms: _304  and  _305
REMARK  120  A    between atoms: _308  and  _310
REMARK  121  A    between atoms: _310  and  _311
REMARK  122  A    between atoms: _310  and  _313
REMARK  123  A    between atoms: _313  and  _314
REMARK  124  A    between atoms: _317  and  _319
REMARK  125  A    between atoms: _319  and  _320
REMARK  126  A    between atoms: _319  and  _322
REMARK  127  A    between atoms: _325  and  _327
REMARK  128  A    between atoms: _327  and  _328
REMARK  129  A    between atoms: _327  and  _330
REMARK  130  A    between atoms: _333  and  _335
REMARK  131  A    between atoms: _335  and  _336
REMARK  132  A    between atoms: _339  and  _341
REMARK  133  A    between atoms: _341  and  _342
REMARK  134  A    between atoms: _341  and  _344
REMARK  135  A    between atoms: _344  and  _345
REMARK  136  A    between atoms: _350  and  _352
REMARK  137  A    between atoms: _352  and  _353
REMARK  138  A    between atoms: _352  and  _355
REMARK  139  A    between atoms: _355  and  _356
REMARK  140  A    between atoms: _360  and  ZN_772
REMARK  141  A    between atoms: _361  and  _363
REMARK  142  A    between atoms: _363  and  _364
REMARK  143  A    between atoms: _363  and  _366
REMARK  144  A    between atoms: _366  and  _367
REMARK  145  A    between atoms: _367  and  _368
REMARK  146  A    between atoms: _371  and  _373
REMARK  147  A    between atoms: _373  and  _374
REMARK  148  A    between atoms: _373  and  _376
REMARK  149  A    between atoms: _376  and  _377
REMARK  150  A    between atoms: _377  and  _378
REMARK  151  A    between atoms: _380  and  _382
REMARK  152  A    between atoms: _382  and  _383
REMARK  153  A    between atoms: _382  and  _385
REMARK  154  A    between atoms: _385  and  _386
REMARK  155  A    between atoms: _390  and  ZN_772
REMARK  156  A    between atoms: _391  and  _393
REMARK  157  A    between atoms: _393  and  _394
REMARK  158  A    between atoms: _393  and  _396
REMARK  159  A    between atoms: _396  and  _397
REMARK  160  A    between atoms: _400  and  _402
REMARK  161  A    between atoms: _402  and  _403
REMARK  162  A    between atoms: _402  and  _405
REMARK  163  A    between atoms: _405  and  _406
REMARK  164  A    between atoms: _411  and  _412
REMARK  165  A    between atoms: _414  and  _416
REMARK  166  A    between atoms: _416  and  _417
REMARK  167  A    between atoms: _416  and  _419
REMARK  168  A    between atoms: _419  and  _420
REMARK  169  A    between atoms: _426  and  _428
REMARK  170  A    between atoms: _428  and  _429
REMARK  171  A    between atoms: _428  and  _431
REMARK  172  A    between atoms: _431  and  _432
REMARK  173  A    between atoms: _437  and  _438
REMARK  174  A    between atoms: _440  and  _442
REMARK  175  A    between atoms: _442  and  _443
REMARK  176  A    between atoms: _442  and  _445
REMARK  177  A    between atoms: _445  and  _446
REMARK  178  A    between atoms: _446  and  _447
REMARK  179  A    between atoms: _447  and  _448
REMARK  180  A    between atoms: _457  and  _459
REMARK  181  A    between atoms: _459  and  _460
REMARK  182  A    between atoms: _459  and  _462
REMARK  183  A    between atoms: _462  and  _463
REMARK  184  A    between atoms: _463  and  _464
REMARK  185  A    between atoms: _467  and  _469
REMARK  186  A    between atoms: _469  and  _470
REMARK  187  A    between atoms: _472  and  _474
REMARK  188  A    between atoms: _474  and  _475
REMARK  189  A    between atoms: _474  and  _477
REMARK  190  A    between atoms: _477  and  _478
REMARK  191  A    between atoms: _484  and  _485
REMARK  192  A    between atoms: _490  and  _492
REMARK  193  A    between atoms: _492  and  _493
REMARK  194  A    between atoms: _495  and  _497
REMARK  195  A    between atoms: _497  and  _498
REMARK  196  A    between atoms: _497  and  _500
REMARK  197  A    between atoms: _500  and  _501
REMARK  198  A    between atoms: _507  and  _509
REMARK  199  A    between atoms: _509  and  _510
REMARK  200  A    between atoms: _509  and  _512
REMARK  201  A    between atoms: _512  and  _513
REMARK  202  A    between atoms: _518  and  _520
REMARK  203  A    between atoms: _520  and  _521
REMARK  204  A    between atoms: _520  and  _523
REMARK  205  A    between atoms: _523  and  _524
REMARK  206  A    between atoms: _524  and  _525
REMARK  207  A    between atoms: _525  and  _526
REMARK  208  A    between atoms: _526  and  ZN_772
REMARK  209  A    between atoms: _528  and  _530
REMARK  210  A    between atoms: _530  and  _531
REMARK  211  A    between atoms: _534  and  _536
REMARK  212  A    between atoms: _536  and  _537
REMARK  213  A    between atoms: _539  and  _541
REMARK  214  A    between atoms: _541  and  _542
REMARK  215  A    between atoms: _541  and  _544
REMARK  216  A    between atoms: _544  and  _545
REMARK  217  A    between atoms: _548  and  _550
REMARK  218  A    between atoms: _550  and  _551
REMARK  219  A    between atoms: _554  and  _556
REMARK  220  A    between atoms: _556  and  _557
REMARK  221  A    between atoms: _556  and  _559
REMARK  222  A    between atoms: _559  and  _560
REMARK  223  A    between atoms: _563  and  _565
REMARK  224  A    between atoms: _565  and  _566
REMARK  225  A    between atoms: _565  and  _568
REMARK  226  A    between atoms: _568  and  _569
REMARK  227  A    between atoms: _569  and  _570
REMARK  228  A    between atoms: _570  and  _571
REMARK  229  A    between atoms: _571  and  _572
REMARK  230  A    between atoms: _576  and  _578
REMARK  231  A    between atoms: _578  and  _579
REMARK  232  A    between atoms: _578  and  _581
REMARK  233  A    between atoms: _581  and  _582
REMARK  234  A    between atoms: _588  and  _590
REMARK  235  A    between atoms: _590  and  _591
REMARK  236  A    between atoms: _590  and  _593
REMARK  237  A    between atoms: _593  and  _594
REMARK  238  A    between atoms: _600  and  _602
REMARK  239  A    between atoms: _602  and  _603
REMARK  240  A    between atoms: _602  and  _605
REMARK  241  A    between atoms: _605  and  _606
REMARK  242  A    between atoms: _608  and  _610
REMARK  243  A    between atoms: _610  and  _611
REMARK  244  A    between atoms: _610  and  _613
REMARK  245  A    between atoms: _616  and  _618
REMARK  246  A    between atoms: _618  and  _619
REMARK  247  A    between atoms: _618  and  _621
REMARK  248  A    between atoms: _621  and  _622
REMARK  249  A    between atoms: _622  and  _623
REMARK  250  A    between atoms: _623  and  _624
REMARK  251  A    between atoms: _624  and  _625
REMARK  252  A    between atoms: _629  and  _631
REMARK  253  A    between atoms: _631  and  _632
REMARK  254  A    between atoms: _631  and  _634
REMARK  255  A    between atoms: _634  and  _635
REMARK  256  A    between atoms: _641  and  _643
REMARK  257  A    between atoms: _643  and  _644
REMARK  258  A    between atoms: _643  and  _646
REMARK  259  A    between atoms: _646  and  _647
REMARK  260  A    between atoms: _652  and  _654
REMARK  261  A    between atoms: _654  and  _655
REMARK  262  A    between atoms: _654  and  _657
REMARK  263  A    between atoms: _657  and  _658
REMARK  264  A    between atoms: _660  and  _662
REMARK  265  A    between atoms: _662  and  _663
REMARK  266  A    between atoms: _662  and  _665
REMARK  267  A    between atoms: _665  and  _666
REMARK  268  A    between atoms: _668  and  _670
REMARK  269  A    between atoms: _670  and  _671
REMARK  270  A    between atoms: _670  and  _673
REMARK  271  A    between atoms: _677  and  _678
REMARK  272  A    between atoms: _683  and  _685
REMARK  273  A    between atoms: _685  and  _686
REMARK  274  A    between atoms: _685  and  _688
REMARK  275  A    between atoms: _688  and  _689
REMARK  276  A    between atoms: _694  and  _695
REMARK  277  A    between atoms: _697  and  _699
REMARK  278  A    between atoms: _699  and  _700
REMARK  279  A    between atoms: _699  and  _702
REMARK  280  A    between atoms: _702  and  _703
REMARK  281  A    between atoms: _703  and  _704
REMARK  282  A    between atoms: _704  and  _705
REMARK  283  A    between atoms: _714  and  _716
REMARK  284  A    between atoms: _716  and  _717
REMARK  285  A    between atoms: _716  and  _719
REMARK  286  A    between atoms: _719  and  _720
REMARK  287  A    between atoms: _725  and  _726
REMARK  288  A    between atoms: _728  and  _730
REMARK  289  A    between atoms: _730  and  _731
REMARK  290  A    between atoms: _730  and  _733
REMARK  291  A    between atoms: _733  and  _734
REMARK  292  A    between atoms: _740  and  _742
REMARK  293  A    between atoms: _742  and  _743
REMARK  294  A    between atoms: _742  and  _745
REMARK  295  A    between atoms: _745  and  _746
REMARK  296  A    between atoms: _748  and  _750
REMARK  297  A    between atoms: _750  and  _751
REMARK  298  A    between atoms: _750  and  _753
REMARK  299  A    between atoms: _753  and  _754
REMARK  300  A    between atoms: _760  and  _762
REMARK  301  A    between atoms: _762  and  _763
REMARK  302  A    between atoms: _762  and  _765
REMARK  303  A    between atoms: _765  and  _766
REMARK  304  A    between atoms: _766  and  _767
REMARK                            x       y       z     vdW  Elec       q    Type
REMARK                         _______ _______ _______ _____ _____    ______ ____
ROOT
ATOM      1  C   VAL A   3       6.546   0.413 -20.660  0.00  0.00    +0.244 C 
ATOM      2  N   PRO A   4       6.678   1.753 -20.703  0.00  0.00    -0.272 N 
ATOM      3  CD  PRO A   4       6.942   2.658 -19.568  0.00  0.00    +0.094 C 
ATOM      4  CG  PRO A   4       6.504   3.997 -20.089  0.00  0.00    +0.024 C 
ATOM      5  CB  PRO A   4       6.794   3.933 -21.566  0.00  0.00    +0.031 C 
ATOM      6  CA  PRO A   4       6.456   2.491 -21.949  0.00  0.00    +0.152 C 
ATOM      7  O   VAL A   3       6.190  -0.257 -21.637  0.00  0.00    -0.273 OA
ENDROOT
BRANCH   6   8
ATOM      8  C   PRO A   4       7.372   1.991 -23.071  0.00  0.00    +0.241 C 
ATOM      9  O   PRO A   4       8.506   1.563 -22.803  0.00  0.00    -0.273 OA
ATOM     10  N   TYR A   5       6.878   2.037 -24.306  0.00  0.00    -0.298 N 
ATOM     11  H   TYR A   5       5.984   2.539 -24.478  0.00  0.00    +0.150 HD
BRANCH  10  12
ATOM     12  CA  TYR A   5       7.564   1.398 -25.424  0.00  0.00    +0.141 C 
BRANCH  12  13
ATOM     13  C   TYR A   5       8.185   2.349 -26.450  0.00  0.00    +0.227 C 
ATOM     14  O   TYR A   5       9.146   1.973 -27.126  0.00  0.00    -0.286 OA
ENDBRANCH  12  13
BRANCH  12  15
ATOM     15  CB  TYR A   5       6.645   0.393 -26.133  0.00  0.00    +0.054 C 
BRANCH  15  16
ATOM     16  CG  TYR A   5       7.397  -0.809 -26.651  0.00  0.00    -0.020 A 
ATOM     17  CD2 TYR A   5       7.724  -1.863 -25.800  0.00  0.00    -0.001 A 
ATOM     18  CE2 TYR A   5       8.437  -2.969 -26.264  0.00  0.00    +0.036 A 
ATOM     19  CZ  TYR A   5       8.827  -3.025 -27.592  0.00  0.00    +0.134 A 
ATOM     20  CE1 TYR A   5       8.518  -1.990 -28.459  0.00  0.00    +0.036 A 
ATOM     21  CD1 TYR A   5       7.801  -0.886 -27.984  0.00  0.00    -0.001 A 
BRANCH  19  22
ATOM     22  OH  TYR A   5       9.523  -4.121 -28.052  0.00  0.00    -0.506 OA
ATOM     23  HH  TYR A   5       9.658  -4.760 -27.308  0.00  0.00    +0.292 HD
ENDBRANCH  19  22
ENDBRANCH  15  16
ENDBRANCH  12  15
ENDBRANCH  10  12
ENDBRANCH   6   8
BRANCH   1  24
ATOM     24  CA  VAL A   3       6.842  -0.277 -19.328  0.00  0.00    +0.149 C 
BRANCH  24  27
ATOM     25  C   SER A   2       4.854  -0.426 -17.911  0.00  0.00    +0.243 C 
ATOM     26  O   SER A   2       5.159   0.577 -17.250  0.00  0.00    -0.273 OA
ATOM     27  N   VAL A   3       5.625  -0.937 -18.868  0.00  0.00    -0.297 N 
ATOM     28  H   VAL A   3       5.350  -1.840 -19.304  0.00  0.00    +0.150 HD
BRANCH  25  29
ATOM     29  CA  SER A   2       3.546  -1.181 -17.652  0.00  0.00    +0.178 C 
BRANCH  29  32
ATOM     30  C   SER A   1       4.654  -3.137 -16.649  0.00  0.00    +0.241 C 
ATOM     31  O   SER A   1       5.415  -2.454 -15.953  0.00  0.00    -0.274 OA
ATOM     32  N   SER A   2       3.754  -2.620 -17.484  0.00  0.00    -0.295 N 
ATOM     33  H   SER A   2       3.169  -3.272 -18.045  0.00  0.00    +0.150 HD
BRANCH  30  34
ATOM     34  CA  SER A   1       4.714  -4.657 -16.594  0.00  0.00    +0.174 C 
BRANCH  34  35
ATOM     35  N   SER A   1       3.704  -5.294 -17.442  0.00  0.00    -0.236 NA
ATOM     36  H   SER A   1       3.966  -5.600 -18.401  0.00  0.00    +0.142 HD
ENDBRANCH  34  35
BRANCH  34  37
ATOM     37  CB  SER A   1       6.118  -5.138 -16.954  0.00  0.00    +0.163 C 
BRANCH  37  38
ATOM     38  OG  SER A   1       6.302  -6.480 -16.550  0.00  0.00    -0.380 OA
ATOM     39  H   SER A   1       6.180  -6.548 -15.570  0.00  0.00    +0.211 HD
ENDBRANCH  37  38
ENDBRANCH  34  37
ENDBRANCH  30  34
ENDBRANCH  29  32
BRANCH  29  40
ATOM     40  CB  SER A   2       2.785  -0.593 -16.457  0.00  0.00    +0.166 C 
BRANCH  40  41
ATOM     41  OG  SER A   2       2.313   0.707 -16.756  0.00  0.00    -0.380 OA
ATOM     42  H   SER A   2       3.081   1.295 -16.968  0.00  0.00    +0.211 HD
ENDBRANCH  40  41
ENDBRANCH  29  40
ENDBRANCH  25  29
ENDBRANCH  24  27
BRANCH  24  43
ATOM     43  CB  VAL A   3       8.001  -1.277 -19.531  0.00  0.00    +0.027 C 
ATOM     44  CG2 VAL A   3       8.217  -2.121 -18.276  0.00  0.00    +0.002 C 
ATOM     45  CG1 VAL A   3       9.283  -0.540 -19.916  0.00  0.00    +0.002 C 
ENDBRANCH  24  43
ENDBRANCH   1  24
TORSDOF 17
REMARK  Name = ../refined-set-2016/2xy9/2xy9_pocket.pdb
REMARK  304 active torsions:
REMARK  status: ('A' for Active; 'I' for Inactive)
REMARK    1  A    between atoms: _1  and  _3
REMARK    2  A    between atoms: _3  and  _4
REMARK    3  A    between atoms: _3  and  _6
REMARK    4  A    between atoms: _6  and  _7
REMARK    5  A    between atoms: _12  and  _14
REMARK    6  A    between atoms: _14  and  _15
REMARK    7  A    between atoms: _14  and  _17
REMARK    8  A    between atoms: _17  and  _18
REMARK    9  A    between atoms: _23  and  _25
REMARK   10  A    between atoms: _25  and  _26
REMARK   11  A    between atoms: _25  and  _28
REMARK   12  A    between atoms: _28  and  _29
REMARK   13  A    between atoms: _29  and  _30
REMARK   14  A    between atoms: _33  and  _35
REMARK   15  A    between atoms: _35  and  _36
REMARK   16  A    between atoms: _35  and  _38
REMARK   17  A    between atoms: _38  and  _39
REMARK   18  A    between atoms: _44  and  _45
REMARK   19  A    between atoms: _47  and  _49
REMARK   20  A    between atoms: _49  and  _50
REMARK   21  A    between atoms: _49  and  _52
REMARK   22  A    between atoms: _52  and  _53
REMARK   23  A    between atoms: _56  and  _58
REMARK   24  A    between atoms: _58  and  _59
REMARK   25  A    between atoms: _61  and  _63
REMARK   26  A    between atoms: _63  and  _64
REMARK   27  A    between atoms: _63  and  _66
REMARK   28  A    between atoms: _66  and  _67
REMARK   29  A    between atoms: _72  and  _74
REMARK   30  A    between atoms: _74  and  _75
REMARK   31  A    between atoms: _74  and  _77
REMARK   32  A    between atoms: _77  and  _78
REMARK   33  A    between atoms: _88  and  _90
REMARK   34  A    between atoms: _90  and  _91
REMARK   35  A    between atoms: _90  and  _93
REMARK   36  A    between atoms: _93  and  _94
REMARK   37  A    between atoms: _94  and  _95
REMARK   38  A    between atoms: _100  and  _102
REMARK   39  A    between atoms: _102  and  _103
REMARK   40  A    between atoms: _102  and  _105
REMARK   41  A    between atoms: _105  and  _106
REMARK   42  A    between atoms: _109  and  _111
REMARK   43  A    between atoms: _111  and  _112
REMARK   44  A    between atoms: _111  and  _114
REMARK   45  A    between atoms: _114  and  _115
REMARK   46  A    between atoms: _125  and  _127
REMARK   47  A    between atoms: _127  and  _128
REMARK   48  A    between atoms: _127  and  _130
REMARK   49  A    between atoms: _130  and  _131
REMARK   50  A    between atoms: _133  and  _135
REMARK   51  A    between atoms: _135  and  _136
REMARK   52  A    between atoms: _135  and  _138
REMARK   53  A    between atoms: _138  and  _139
REMARK   54  A    between atoms: _144  and  _146
REMARK   55  A    between atoms: _146  and  _147
REMARK   56  A    between atoms: _146  and  _149
REMARK   57  A    between atoms: _152  and  _154
REMARK   58  A    between atoms: _154  and  _155
REMARK   59  A    between atoms: _154  and  _157
REMARK   60  A    between atoms: _159  and  _161
REMARK   61  A    between atoms: _161  and  _162
REMARK   62  A    between atoms: _161  and  _164
REMARK   63  A    between atoms: _164  and  _165
REMARK   64  A    between atoms: _170  and  _172
REMARK   65  A    between atoms: _172  and  _173
REMARK   66  A    between atoms: _176  and  _178
REMARK   67  A    between atoms: _178  and  _179
REMARK   68  A    between atoms: _178  and  _181
REMARK   69  A    between atoms: _181  and  _182
REMARK   70  A    between atoms: _184  and  _186
REMARK   71  A    between atoms: _186  and  _187
REMARK   72  A    between atoms: _190  and  _192
REMARK   73  A    between atoms: _192  and  _193
REMARK   74  A    between atoms: _192  and  _195
REMARK   75  A    between atoms: _195  and  _196
REMARK   76  A    between atoms: _206  and  _208
REMARK   77  A    between atoms: _208  and  _209
REMARK   78  A    between atoms: _208  and  _211
REMARK   79  A    between atoms: _211  and  _212
REMARK   80  A    between atoms: _215  and  _217
REMARK   81  A    between atoms: _217  and  _218
REMARK   82  A    between atoms: _217  and  _220
REMARK   83  A    between atoms: _220  and  _221
REMARK   84  A    between atoms: _226  and  _227
REMARK   85  A    between atoms: _229  and  _231
REMARK   86  A    between atoms: _231  and  _232
REMARK   87  A    between atoms: _231  and  _234
REMARK   88  A    between atoms: _234  and  _235
REMARK   89  A    between atoms: _235  and  _236
REMARK   90  A    between atoms: _236  and  _237
REMARK   91  A    between atoms: _246  and  _248
REMARK   92  A    between atoms: _248  and  _249
REMARK   93  A    between atoms: _248  and  _251
REMARK   94  A    between atoms: _251  and  _252
REMARK   95  A    between atoms: _255  and  _257
REMARK   96  A    between atoms: _257  and  _258
REMARK   97  A    between atoms: _257  and  _260
REMARK   98  A    between atoms: _260  and  _261
REMARK   99  A    between atoms: _261  and  _262
REMARK  100  A    between atoms: _262  and  _263
REMARK  101  A    between atoms: _263  and  _264
REMARK  102  A    between atoms: _268  and  _270
REMARK  103  A    between atoms: _270  and  _271
REMARK  104  A    between atoms: _270  and  _273
REMARK  105  A    between atoms: _273  and  _274
REMARK  106  A    between atoms: _274  and  _275
REMARK  107  A    between atoms: _280  and  _282
REMARK  108  A    between atoms: _282  and  _283
REMARK  109  A    between atoms: _282  and  _285
REMARK  110  A    between atoms: _285  and  _286
REMARK  111  A    between atoms: _289  and  _291
REMARK  112  A    between atoms: _291  and  _292
REMARK  113  A    between atoms: _291  and  _294
REMARK  114  A    between atoms: _294  and  _295
REMARK  115  A    between atoms: _295  and  _296
REMARK  116  A    between atoms: _299  and  _301
REMARK  117  A    between atoms: _301  and  _302
REMARK  118  A    between atoms: _301  and  _304
REMARK  119  A    between atoms: _304  and  _305
REMARK  120  A    between atoms: _308  and  _310
REMARK  121  A    between atoms: _310  and  _311
REMARK  122  A    between atoms: _310  and  _313
REMARK  123  A    between atoms: _313  and  _314
REMARK  124  A    between atoms: _317  and  _319
REMARK  125  A    between atoms: _319  and  _320
REMARK  126  A    between atoms: _319  and  _322
REMARK  127  A    between atoms: _325  and  _327
REMARK  128  A    between atoms: _327  and  _328
REMARK  129  A    between atoms: _327  and  _330
REMARK  130  A    between atoms: _333  and  _335
REMARK  131  A    between atoms: _335  and  _336
REMARK  132  A    between atoms: _339  and  _341
REMARK  133  A    between atoms: _341  and  _342
REMARK  134  A    between atoms: _341  and  _344
REMARK  135  A    between atoms: _344  and  _345
REMARK  136  A    between atoms: _350  and  _352
REMARK  137  A    between atoms: _352  and  _353
REMARK  138  A    between atoms: _352  and  _355
REMARK  139  A    between atoms: _355  and  _356
REMARK  140  A    between atoms: _360  and  ZN_772
REMARK  141  A    between atoms: _361  and  _363
REMARK  142  A    between atoms: _363  and  _364
REMARK  143  A    between atoms: _363  and  _366
REMARK  144  A    between atoms: _366  and  _367
REMARK  145  A    between atoms: _367  and  _368
REMARK  146  A    between atoms: _371  and  _373
REMARK  147  A    between atoms: _373  and  _374
REMARK  148  A    between atoms: _373  and  _376
REMARK  149  A    between atoms: _376  and  _377
REMARK  150  A    between atoms: _377  and  _378
REMARK  151  A    between atoms: _380  and  _382
REMARK  152  A    between atoms: _382  and  _383
REMARK  153  A    between atoms: _382  and  _385
REMARK  154  A    between atoms: _385  and  _386
REMARK  155  A    between atoms: _390  and  ZN_772
REMARK  156  A    between atoms: _391  and  _393
REMARK  157  A    between atoms: _393  and  _394
REMARK  158  A    between atoms: _393  and  _396
REMARK  159  A    between atoms: _396  and  _397
REMARK  160  A    between atoms: _400  and  _402
REMARK  161  A    between atoms: _402  and  _403
REMARK  162  A    between atoms: _402  and  _405
REMARK  163  A    between atoms: _405  and  _406
REMARK  164  A    between atoms: _411  and  _412
REMARK  165  A    between atoms: _414  and  _416
REMARK  166  A    between atoms: _416  and  _417
REMARK  167  A    between atoms: _416  and  _419
REMARK  168  A    between atoms: _419  and  _420
REMARK  169  A    between atoms: _426  and  _428
REMARK  170  A    between atoms: _428  and  _429
REMARK  171  A    between atoms: _428  and  _431
REMARK  172  A    between atoms: _431  and  _432
REMARK  173  A    between atoms: _437  and  _438
REMARK  174  A    between atoms: _440  and  _442
REMARK  175  A    between atoms: _442  and  _443
REMARK  176  A    between atoms: _442  and  _445
REMARK  177  A    between atoms: _445  and  _446
REMARK  178  A    between atoms: _446  and  _447
REMARK  179  A    between atoms: _447  and  _448
REMARK  180  A    between atoms: _457  and  _459
REMARK  181  A    between atoms: _459  and  _460
REMARK  182  A    between atoms: _459  and  _462
REMARK  183  A    between atoms: _462  and  _463
REMARK  184  A    between atoms: _463  and  _464
REMARK  185  A    between atoms: _467  and  _469
REMARK  186  A    between atoms: _469  and  _470
REMARK  187  A    between atoms: _472  and  _474
REMARK  188  A    between atoms: _474  and  _475
REMARK  189  A    between atoms: _474  and  _477
REMARK  190  A    between atoms: _477  and  _478
REMARK  191  A    between atoms: _484  and  _485
REMARK  192  A    between atoms: _490  and  _492
REMARK  193  A    between atoms: _492  and  _493
REMARK  194  A    between atoms: _495  and  _497
REMARK  195  A    between atoms: _497  and  _498
REMARK  196  A    between atoms: _497  and  _500
REMARK  197  A    between atoms: _500  and  _501
REMARK  198  A    between atoms: _507  and  _509
REMARK  199  A    between atoms: _509  and  _510
REMARK  200  A    between atoms: _509  and  _512
REMARK  201  A    between atoms: _512  and  _513
REMARK  202  A    between atoms: _518  and  _520
REMARK  203  A    between atoms: _520  and  _521
REMARK  204  A    between atoms: _520  and  _523
REMARK  205  A    between atoms: _523  and  _524
REMARK  206  A    between atoms: _524  and  _525
REMARK  207  A    between atoms: _525  and  _526
REMARK  208  A    between atoms: _526  and  ZN_772
REMARK  209  A    between atoms: _528  and  _530
REMARK  210  A    between atoms: _530  and  _531
REMARK  211  A    between atoms: _534  and  _536
REMARK  212  A    between atoms: _536  and  _537
REMARK  213  A    between atoms: _539  and  _541
REMARK  214  A    between atoms: _541  and  _542
REMARK  215  A    between atoms: _541  and  _544
REMARK  216  A    between atoms: _544  and  _545
REMARK  217  A    between atoms: _548  and  _550
REMARK  218  A    between atoms: _550  and  _551
REMARK  219  A    between atoms: _554  and  _556
REMARK  220  A    between atoms: _556  and  _557
REMARK  221  A    between atoms: _556  and  _559
REMARK  222  A    between atoms: _559  and  _560
REMARK  223  A    between atoms: _563  and  _565
REMARK  224  A    between atoms: _565  and  _566
REMARK  225  A    between atoms: _565  and  _568
REMARK  226  A    between atoms: _568  and  _569
REMARK  227  A    between atoms: _569  and  _570
REMARK  228  A    between atoms: _570  and  _571
REMARK  229  A    between atoms: _571  and  _572
REMARK  230  A    between atoms: _576  and  _578
REMARK  231  A    between atoms: _578  and  _579
REMARK  232  A    between atoms: _578  and  _581
REMARK  233  A    between atoms: _581  and  _582
REMARK  234  A    between atoms: _588  and  _590
REMARK  235  A    between atoms: _590  and  _591
REMARK  236  A    between atoms: _590  and  _593
REMARK  237  A    between atoms: _593  and  _594
REMARK  238  A    between atoms: _600  and  _602
REMARK  239  A    between atoms: _602  and  _603
REMARK  240  A    between atoms: _602  and  _605
REMARK  241  A    between atoms: _605  and  _606
REMARK  242  A    between atoms: _608  and  _610
REMARK  243  A    between atoms: _610  and  _611
REMARK  244  A    between atoms: _610  and  _613
REMARK  245  A    between atoms: _616  and  _618
REMARK  246  A    between atoms: _618  and  _619
REMARK  247  A    between atoms: _618  and  _621
REMARK  248  A    between atoms: _621  and  _622
REMARK  249  A    between atoms: _622  and  _623
REMARK  250  A    between atoms: _623  and  _624
REMARK  251  A    between atoms: _624  and  _625
REMARK  252  A    between atoms: _629  and  _631
REMARK  253  A    between atoms: _631  and  _632
REMARK  254  A    between atoms: _631  and  _634
REMARK  255  A    between atoms: _634  and  _635
REMARK  256  A    between atoms: _641  and  _643
REMARK  257  A    between atoms: _643  and  _644
REMARK  258  A    between atoms: _643  and  _646
REMARK  259  A    between atoms: _646  and  _647
REMARK  260  A    between atoms: _652  and  _654
REMARK  261  A    between atoms: _654  and  _655
REMARK  262  A    between atoms: _654  and  _657
REMARK  263  A    between atoms: _657  and  _658
REMARK  264  A    between atoms: _660  and  _662
REMARK  265  A    between atoms: _662  and  _663
REMARK  266  A    between atoms: _662  and  _665
REMARK  267  A    between atoms: _665  and  _666
REMARK  268  A    between atoms: _668  and  _670
REMARK  269  A    between atoms: _670  and  _671
REMARK  270  A    between atoms: _670  and  _673
REMARK  271  A    between atoms: _677  and  _678
REMARK  272  A    between atoms: _683  and  _685
REMARK  273  A    between atoms: _685  and  _686
REMARK  274  A    between atoms: _685  and  _688
REMARK  275  A    between atoms: _688  and  _689
REMARK  276  A    between atoms: _694  and  _695
REMARK  277  A    between atoms: _697  and  _699
REMARK  278  A    between atoms: _699  and  _700
REMARK  279  A    between atoms: _699  and  _702
REMARK  280  A    between atoms: _702  and  _703
REMARK  281  A    between atoms: _703  and  _704
REMARK  282  A    between atoms: _704  and  _705
REMARK  283  A    between atoms: _714  and  _716
REMARK  284  A    between atoms: _716  and  _717
REMARK  285  A    between atoms: _716  and  _719
REMARK  286  A    between atoms: _719  and  _720
REMARK  287  A    between atoms: _725  and  _726
REMARK  288  A    between atoms: _728  and  _730
REMARK  289  A    between atoms: _730  and  _731
REMARK  290  A    between atoms: _730  and  _733
REMARK  291  A    between atoms: _733  and  _734
REMARK  292  A    between atoms: _740  and  _742
REMARK  293  A    between atoms: _742  and  _743
REMARK  294  A    between atoms: _742  and  _745
REMARK  295  A    between atoms: _745  and  _746
REMARK  296  A    between atoms: _748  and  _750
REMARK  297  A    between atoms: _750  and  _751
REMARK  298  A    between atoms: _750  and  _753
REMARK  299  A    between atoms: _753  and  _754
REMARK  300  A    between atoms: _760  and  _762
REMARK  301  A    between atoms: _762  and  _763
REMARK  302  A    between atoms: _762  and  _765
REMARK  303  A    between atoms: _765  and  _766
REMARK  304  A    between atoms: _766  and  _767
REMARK                            x       y       z     vdW  Elec       q    Type
REMARK                         _______ _______ _______ _____ _____    ______ ____
ROOT
ATOM      1  CA  TYR A   2      12.615   1.795 -28.158  0.00  0.00    +0.153 C 
ENDROOT
BRANCH   1   4
ATOM      2  C   ARG A   1      12.458   3.856 -26.882  0.00  0.00    +0.238 C 
ATOM      3  O   ARG A   1      13.609   4.195 -27.190  0.00  0.00    -0.274 OA
ATOM      4  N   TYR A   2      11.897   2.728 -27.308  0.00  0.00    -0.297 N 
ATOM      5  H   TYR A   2      10.920   2.509 -27.026  0.00  0.00    +0.150 HD
BRANCH   2   6
ATOM      6  CA  ARG A   1      11.604   4.727 -25.955  0.00  0.00    +0.145 C 
BRANCH   6   7
ATOM      7  N   ARG A   1      10.164   4.630 -26.232  0.00  0.00    -0.238 NA
ATOM      8  H   ARG A   1       9.523   4.414 -25.442  0.00  0.00    +0.142 HD
ENDBRANCH   6   7
BRANCH   6   9
ATOM      9  CB  ARG A   1      11.889   4.359 -24.493  0.00  0.00    +0.030 C 
BRANCH   9  10
ATOM     10  CG  ARG A   1      11.426   2.947 -24.087  0.00  0.00    +0.045 C 
BRANCH  10  11
ATOM     11  CD  ARG A   1      11.660   2.664 -22.607  0.00  0.00    +0.174 C 
BRANCH  11  12
ATOM     12  NE  ARG A   1      11.001   3.663 -21.770  0.00  0.00    -0.265 N 
ATOM     13  CZ  ARG A   1      11.010   3.675 -20.441  0.00  0.00    +0.342 C 
ATOM     14  NH2 ARG A   1      11.650   2.733 -19.757  0.00  0.00    -0.292 N 
ATOM     15 HH21 ARG A   1      11.649   2.754 -18.717  0.00  0.00    +0.255 HD
ATOM     16 HH22 ARG A   1      12.152   1.974 -20.261  0.00  0.00    +0.255 HD
ATOM     17  NH1 ARG A   1      10.374   4.646 -19.792  0.00  0.00    -0.292 N 
ATOM     18 HH11 ARG A   1      10.375   4.664 -18.752  0.00  0.00    +0.255 HD
ATOM     19 HH12 ARG A   1       9.875   5.387 -20.324  0.00  0.00    +0.255 HD
ATOM     20  HE  ARG A   1      10.484   4.426 -22.252  0.00  0.00    +0.259 HD
ENDBRANCH  11  12
ENDBRANCH  10  11
ENDBRANCH   9  10
ENDBRANCH   6   9
ENDBRANCH   2   6
ENDBRANCH   1   4
BRANCH   1  21
ATOM     21  C   TYR A   2      12.599   2.212 -29.622  0.00  0.00    +0.241 C 
ATOM     22  N   PHE A   3      11.510   2.845 -30.054  0.00  0.00    -0.298 N 
ATOM     23  H   PHE A   3      10.689   2.923 -29.421  0.00  0.00    +0.150 HD
ATOM     24  O   TYR A   2      13.556   1.945 -30.343  0.00  0.00    -0.273 OA
BRANCH  22  25
ATOM     25  CA  PHE A   3      11.432   3.435 -31.393  0.00  0.00    +0.141 C 
BRANCH  25  26
ATOM     26  C   PHE A   3      12.469   4.556 -31.511  0.00  0.00    +0.227 C 
ATOM     27  O   PHE A   3      13.243   4.606 -32.478  0.00  0.00    -0.286 OA
ENDBRANCH  25  26
BRANCH  25  28
ATOM     28  CB  PHE A   3      10.011   3.960 -31.673  0.00  0.00    +0.054 C 
BRANCH  28  29
ATOM     29  CG  PHE A   3       9.864   4.655 -33.009  0.00  0.00    -0.020 A 
ATOM     30  CD2 PHE A   3      10.040   6.033 -33.116  0.00  0.00    -0.004 A 
ATOM     31  CE2 PHE A   3       9.918   6.681 -34.349  0.00  0.00    -0.000 A 
ATOM     32  CZ  PHE A   3       9.613   5.943 -35.489  0.00  0.00    -0.000 A 
ATOM     33  CE1 PHE A   3       9.436   4.567 -35.393  0.00  0.00    -0.000 A 
ATOM     34  CD1 PHE A   3       9.561   3.931 -34.156  0.00  0.00    -0.004 A 
ENDBRANCH  28  29
ENDBRANCH  25  28
ENDBRANCH  22  25
ENDBRANCH   1  21
BRANCH   1  35
ATOM     35  CB  TYR A   2      12.064   0.381 -28.008  0.00  0.00    +0.055 C 
BRANCH  35  36
ATOM     36  CG  TYR A   2      12.112  -0.148 -26.597  0.00  0.00    -0.020 A 
ATOM     37  CD2 TYR A   2      13.326  -0.293 -25.918  0.00  0.00    -0.001 A 
ATOM     38  CE2 TYR A   2      13.363  -0.785 -24.621  0.00  0.00    +0.036 A 
ATOM     39  CZ  TYR A   2      12.182  -1.133 -23.996  0.00  0.00    +0.134 A 
ATOM     40  CE1 TYR A   2      10.978  -0.987 -24.645  0.00  0.00    +0.036 A 
ATOM     41  CD1 TYR A   2      10.951  -0.496 -25.939  0.00  0.00    -0.001 A 
BRANCH  39  42
ATOM     42  OH  TYR A   2      12.184  -1.624 -22.715  0.00  0.00    -0.506 OA
ATOM     43  HH  TYR A   2      13.115  -1.672 -22.383  0.00  0.00    +0.292 HD
ENDBRANCH  39  42
ENDBRANCH  35  36
ENDBRANCH   1  35
TORSDOF 15
REMARK  Name = ../refined-set-2016/2xy9/2xy9_pocket.pdb
REMARK  304 active torsions:
REMARK  status: ('A' for Active; 'I' for Inactive)
REMARK    1  A    between atoms: _1  and  _3
REMARK    2  A    between atoms: _3  and  _4
REMARK    3  A    between atoms: _3  and  _6
REMARK    4  A    between atoms: _6  and  _7
REMARK    5  A    between atoms: _12  and  _14
REMARK    6  A    between atoms: _14  and  _15
REMARK    7  A    between atoms: _14  and  _17
REMARK    8  A    between atoms: _17  and  _18
REMARK    9  A    between atoms: _23  and  _25
REMARK   10  A    between atoms: _25  and  _26
REMARK   11  A    between atoms: _25  and  _28
REMARK   12  A    between atoms: _28  and  _29
REMARK   13  A    between atoms: _29  and  _30
REMARK   14  A    between atoms: _33  and  _35
REMARK   15  A    between atoms: _35  and  _36
REMARK   16  A    between atoms: _35  and  _38
REMARK   17  A    between atoms: _38  and  _39
REMARK   18  A    between atoms: _44  and  _45
REMARK   19  A    between atoms: _47  and  _49
REMARK   20  A    between atoms: _49  and  _50
REMARK   21  A    between atoms: _49  and  _52
REMARK   22  A    between atoms: _52  and  _53
REMARK   23  A    between atoms: _56  and  _58
REMARK   24  A    between atoms: _58  and  _59
REMARK   25  A    between atoms: _61  and  _63
REMARK   26  A    between atoms: _63  and  _64
REMARK   27  A    between atoms: _63  and  _66
REMARK   28  A    between atoms: _66  and  _67
REMARK   29  A    between atoms: _72  and  _74
REMARK   30  A    between atoms: _74  and  _75
REMARK   31  A    between atoms: _74  and  _77
REMARK   32  A    between atoms: _77  and  _78
REMARK   33  A    between atoms: _88  and  _90
REMARK   34  A    between atoms: _90  and  _91
REMARK   35  A    between atoms: _90  and  _93
REMARK   36  A    between atoms: _93  and  _94
REMARK   37  A    between atoms: _94  and  _95
REMARK   38  A    between atoms: _100  and  _102
REMARK   39  A    between atoms: _102  and  _103
REMARK   40  A    between atoms: _102  and  _105
REMARK   41  A    between atoms: _105  and  _106
REMARK   42  A    between atoms: _109  and  _111
REMARK   43  A    between atoms: _111  and  _112
REMARK   44  A    between atoms: _111  and  _114
REMARK   45  A    between atoms: _114  and  _115
REMARK   46  A    between atoms: _125  and  _127
REMARK   47  A    between atoms: _127  and  _128
REMARK   48  A    between atoms: _127  and  _130
REMARK   49  A    between atoms: _130  and  _131
REMARK   50  A    between atoms: _133  and  _135
REMARK   51  A    between atoms: _135  and  _136
REMARK   52  A    between atoms: _135  and  _138
REMARK   53  A    between atoms: _138  and  _139
REMARK   54  A    between atoms: _144  and  _146
REMARK   55  A    between atoms: _146  and  _147
REMARK   56  A    between atoms: _146  and  _149
REMARK   57  A    between atoms: _152  and  _154
REMARK   58  A    between atoms: _154  and  _155
REMARK   59  A    between atoms: _154  and  _157
REMARK   60  A    between atoms: _159  and  _161
REMARK   61  A    between atoms: _161  and  _162
REMARK   62  A    between atoms: _161  and  _164
REMARK   63  A    between atoms: _164  and  _165
REMARK   64  A    between atoms: _170  and  _172
REMARK   65  A    between atoms: _172  and  _173
REMARK   66  A    between atoms: _176  and  _178
REMARK   67  A    between atoms: _178  and  _179
REMARK   68  A    between atoms: _178  and  _181
REMARK   69  A    between atoms: _181  and  _182
REMARK   70  A    between atoms: _184  and  _186
REMARK   71  A    between atoms: _186  and  _187
REMARK   72  A    between atoms: _190  and  _192
REMARK   73  A    between atoms: _192  and  _193
REMARK   74  A    between atoms: _192  and  _195
REMARK   75  A    between atoms: _195  and  _196
REMARK   76  A    between atoms: _206  and  _208
REMARK   77  A    between atoms: _208  and  _209
REMARK   78  A    between atoms: _208  and  _211
REMARK   79  A    between atoms: _211  and  _212
REMARK   80  A    between atoms: _215  and  _217
REMARK   81  A    between atoms: _217  and  _218
REMARK   82  A    between atoms: _217  and  _220
REMARK   83  A    between atoms: _220  and  _221
REMARK   84  A    between atoms: _226  and  _227
REMARK   85  A    between atoms: _229  and  _231
REMARK   86  A    between atoms: _231  and  _232
REMARK   87  A    between atoms: _231  and  _234
REMARK   88  A    between atoms: _234  and  _235
REMARK   89  A    between atoms: _235  and  _236
REMARK   90  A    between atoms: _236  and  _237
REMARK   91  A    between atoms: _246  and  _248
REMARK   92  A    between atoms: _248  and  _249
REMARK   93  A    between atoms: _248  and  _251
REMARK   94  A    between atoms: _251  and  _252
REMARK   95  A    between atoms: _255  and  _257
REMARK   96  A    between atoms: _257  and  _258
REMARK   97  A    between atoms: _257  and  _260
REMARK   98  A    between atoms: _260  and  _261
REMARK   99  A    between atoms: _261  and  _262
REMARK  100  A    between atoms: _262  and  _263
REMARK  101  A    between atoms: _263  and  _264
REMARK  102  A    between atoms: _268  and  _270
REMARK  103  A    between atoms: _270  and  _271
REMARK  104  A    between atoms: _270  and  _273
REMARK  105  A    between atoms: _273  and  _274
REMARK  106  A    between atoms: _274  and  _275
REMARK  107  A    between atoms: _280  and  _282
REMARK  108  A    between atoms: _282  and  _283
REMARK  109  A    between atoms: _282  and  _285
REMARK  110  A    between atoms: _285  and  _286
REMARK  111  A    between atoms: _289  and  _291
REMARK  112  A    between atoms: _291  and  _292
REMARK  113  A    between atoms: _291  and  _294
REMARK  114  A    between atoms: _294  and  _295
REMARK  115  A    between atoms: _295  and  _296
REMARK  116  A    between atoms: _299  and  _301
REMARK  117  A    between atoms: _301  and  _302
REMARK  118  A    between atoms: _301  and  _304
REMARK  119  A    between atoms: _304  and  _305
REMARK  120  A    between atoms: _308  and  _310
REMARK  121  A    between atoms: _310  and  _311
REMARK  122  A    between atoms: _310  and  _313
REMARK  123  A    between atoms: _313  and  _314
REMARK  124  A    between atoms: _317  and  _319
REMARK  125  A    between atoms: _319  and  _320
REMARK  126  A    between atoms: _319  and  _322
REMARK  127  A    between atoms: _325  and  _327
REMARK  128  A    between atoms: _327  and  _328
REMARK  129  A    between atoms: _327  and  _330
REMARK  130  A    between atoms: _333  and  _335
REMARK  131  A    between atoms: _335  and  _336
REMARK  132  A    between atoms: _339  and  _341
REMARK  133  A    between atoms: _341  and  _342
REMARK  134  A    between atoms: _341  and  _344
REMARK  135  A    between atoms: _344  and  _345
REMARK  136  A    between atoms: _350  and  _352
REMARK  137  A    between atoms: _352  and  _353
REMARK  138  A    between atoms: _352  and  _355
REMARK  139  A    between atoms: _355  and  _356
REMARK  140  A    between atoms: _360  and  ZN_772
REMARK  141  A    between atoms: _361  and  _363
REMARK  142  A    between atoms: _363  and  _364
REMARK  143  A    between atoms: _363  and  _366
REMARK  144  A    between atoms: _366  and  _367
REMARK  145  A    between atoms: _367  and  _368
REMARK  146  A    between atoms: _371  and  _373
REMARK  147  A    between atoms: _373  and  _374
REMARK  148  A    between atoms: _373  and  _376
REMARK  149  A    between atoms: _376  and  _377
REMARK  150  A    between atoms: _377  and  _378
REMARK  151  A    between atoms: _380  and  _382
REMARK  152  A    between atoms: _382  and  _383
REMARK  153  A    between atoms: _382  and  _385
REMARK  154  A    between atoms: _385  and  _386
REMARK  155  A    between atoms: _390  and  ZN_772
REMARK  156  A    between atoms: _391  and  _393
REMARK  157  A    between atoms: _393  and  _394
REMARK  158  A    between atoms: _393  and  _396
REMARK  159  A    between atoms: _396  and  _397
REMARK  160  A    between atoms: _400  and  _402
REMARK  161  A    between atoms: _402  and  _403
REMARK  162  A    between atoms: _402  and  _405
REMARK  163  A    between atoms: _405  and  _406
REMARK  164  A    between atoms: _411  and  _412
REMARK  165  A    between atoms: _414  and  _416
REMARK  166  A    between atoms: _416  and  _417
REMARK  167  A    between atoms: _416  and  _419
REMARK  168  A    between atoms: _419  and  _420
REMARK  169  A    between atoms: _426  and  _428
REMARK  170  A    between atoms: _428  and  _429
REMARK  171  A    between atoms: _428  and  _431
REMARK  172  A    between atoms: _431  and  _432
REMARK  173  A    between atoms: _437  and  _438
REMARK  174  A    between atoms: _440  and  _442
REMARK  175  A    between atoms: _442  and  _443
REMARK  176  A    between atoms: _442  and  _445
REMARK  177  A    between atoms: _445  and  _446
REMARK  178  A    between atoms: _446  and  _447
REMARK  179  A    between atoms: _447  and  _448
REMARK  180  A    between atoms: _457  and  _459
REMARK  181  A    between atoms: _459  and  _460
REMARK  182  A    between atoms: _459  and  _462
REMARK  183  A    between atoms: _462  and  _463
REMARK  184  A    between atoms: _463  and  _464
REMARK  185  A    between atoms: _467  and  _469
REMARK  186  A    between atoms: _469  and  _470
REMARK  187  A    between atoms: _472  and  _474
REMARK  188  A    between atoms: _474  and  _475
REMARK  189  A    between atoms: _474  and  _477
REMARK  190  A    between atoms: _477  and  _478
REMARK  191  A    between atoms: _484  and  _485
REMARK  192  A    between atoms: _490  and  _492
REMARK  193  A    between atoms: _492  and  _493
REMARK  194  A    between atoms: _495  and  _497
REMARK  195  A    between atoms: _497  and  _498
REMARK  196  A    between atoms: _497  and  _500
REMARK  197  A    between atoms: _500  and  _501
REMARK  198  A    between atoms: _507  and  _509
REMARK  199  A    between atoms: _509  and  _510
REMARK  200  A    between atoms: _509  and  _512
REMARK  201  A    between atoms: _512  and  _513
REMARK  202  A    between atoms: _518  and  _520
REMARK  203  A    between atoms: _520  and  _521
REMARK  204  A    between atoms: _520  and  _523
REMARK  205  A    between atoms: _523  and  _524
REMARK  206  A    between atoms: _524  and  _525
REMARK  207  A    between atoms: _525  and  _526
REMARK  208  A    between atoms: _526  and  ZN_772
REMARK  209  A    between atoms: _528  and  _530
REMARK  210  A    between atoms: _530  and  _531
REMARK  211  A    between atoms: _534  and  _536
REMARK  212  A    between atoms: _536  and  _537
REMARK  213  A    between atoms: _539  and  _541
REMARK  214  A    between atoms: _541  and  _542
REMARK  215  A    between atoms: _541  and  _544
REMARK  216  A    between atoms: _544  and  _545
REMARK  217  A    between atoms: _548  and  _550
REMARK  218  A    between atoms: _550  and  _551
REMARK  219  A    between atoms: _554  and  _556
REMARK  220  A    between atoms: _556  and  _557
REMARK  221  A    between atoms: _556  and  _559
REMARK  222  A    between atoms: _559  and  _560
REMARK  223  A    between atoms: _563  and  _565
REMARK  224  A    between atoms: _565  and  _566
REMARK  225  A    between atoms: _565  and  _568
REMARK  226  A    between atoms: _568  and  _569
REMARK  227  A    between atoms: _569  and  _570
REMARK  228  A    between atoms: _570  and  _571
REMARK  229  A    between atoms: _571  and  _572
REMARK  230  A    between atoms: _576  and  _578
REMARK  231  A    between atoms: _578  and  _579
REMARK  232  A    between atoms: _578  and  _581
REMARK  233  A    between atoms: _581  and  _582
REMARK  234  A    between atoms: _588  and  _590
REMARK  235  A    between atoms: _590  and  _591
REMARK  236  A    between atoms: _590  and  _593
REMARK  237  A    between atoms: _593  and  _594
REMARK  238  A    between atoms: _600  and  _602
REMARK  239  A    between atoms: _602  and  _603
REMARK  240  A    between atoms: _602  and  _605
REMARK  241  A    between atoms: _605  and  _606
REMARK  242  A    between atoms: _608  and  _610
REMARK  243  A    between atoms: _610  and  _611
REMARK  244  A    between atoms: _610  and  _613
REMARK  245  A    between atoms: _616  and  _618
REMARK  246  A    between atoms: _618  and  _619
REMARK  247  A    between atoms: _618  and  _621
REMARK  248  A    between atoms: _621  and  _622
REMARK  249  A    between atoms: _622  and  _623
REMARK  250  A    between atoms: _623  and  _624
REMARK  251  A    between atoms: _624  and  _625
REMARK  252  A    between atoms: _629  and  _631
REMARK  253  A    between atoms: _631  and  _632
REMARK  254  A    between atoms: _631  and  _634
REMARK  255  A    between atoms: _634  and  _635
REMARK  256  A    between atoms: _641  and  _643
REMARK  257  A    between atoms: _643  and  _644
REMARK  258  A    between atoms: _643  and  _646
REMARK  259  A    between atoms: _646  and  _647
REMARK  260  A    between atoms: _652  and  _654
REMARK  261  A    between atoms: _654  and  _655
REMARK  262  A    between atoms: _654  and  _657
REMARK  263  A    between atoms: _657  and  _658
REMARK  264  A    between atoms: _660  and  _662
REMARK  265  A    between atoms: _662  and  _663
REMARK  266  A    between atoms: _662  and  _665
REMARK  267  A    between atoms: _665  and  _666
REMARK  268  A    between atoms: _668  and  _670
REMARK  269  A    between atoms: _670  and  _671
REMARK  270  A    between atoms: _670  and  _673
REMARK  271  A    between atoms: _677  and  _678
REMARK  272  A    between atoms: _683  and  _685
REMARK  273  A    between atoms: _685  and  _686
REMARK  274  A    between atoms: _685  and  _688
REMARK  275  A    between atoms: _688  and  _689
REMARK  276  A    between atoms: _694  and  _695
REMARK  277  A    between atoms: _697  and  _699
REMARK  278  A    between atoms: _699  and  _700
REMARK  279  A    between atoms: _699  and  _702
REMARK  280  A    between atoms: _702  and  _703
REMARK  281  A    between atoms: _703  and  _704
REMARK  282  A    between atoms: _704  and  _705
REMARK  283  A    between atoms: _714  and  _716
REMARK  284  A    between atoms: _716  and  _717
REMARK  285  A    between atoms: _716  and  _719
REMARK  286  A    between atoms: _719  and  _720
REMARK  287  A    between atoms: _725  and  _726
REMARK  288  A    between atoms: _728  and  _730
REMARK  289  A    between atoms: _730  and  _731
REMARK  290  A    between atoms: _730  and  _733
REMARK  291  A    between atoms: _733  and  _734
REMARK  292  A    between atoms: _740  and  _742
REMARK  293  A    between atoms: _742  and  _743
REMARK  294  A    between atoms: _742  and  _745
REMARK  295  A    between atoms: _745  and  _746
REMARK  296  A    between atoms: _748  and  _750
REMARK  297  A    between atoms: _750  and  _751
REMARK  298  A    between atoms: _750  and  _753
REMARK  299  A    between atoms: _753  and  _754
REMARK  300  A    between atoms: _760  and  _762
REMARK  301  A    between atoms: _762  and  _763
REMARK  302  A    between atoms: _762  and  _765
REMARK  303  A    between atoms: _765  and  _766
REMARK  304  A    between atoms: _766  and  _767
REMARK                            x       y       z     vdW  Elec       q    Type
REMARK                         _______ _______ _______ _____ _____    ______ ____
ROOT
ATOM      1  C   SER A   1      16.941   3.840 -30.855  0.00  0.00    +0.241 C 
ATOM      2  O   SER A   1      18.094   4.080 -31.194  0.00  0.00    -0.274 OA
ATOM      3  N   PHE A   2      16.091   3.151 -31.617  0.00  0.00    -0.298 N 
ATOM      4  H   PHE A   2      15.108   3.023 -31.303  0.00  0.00    +0.150 HD
ENDROOT
BRANCH   1   5
ATOM      5  CA  SER A   1      16.432   4.318 -29.498  0.00  0.00    +0.174 C 
BRANCH   5   6
ATOM      6  N   SER A   1      15.124   4.969 -29.572  0.00  0.00    -0.236 NA
ATOM      7  H   SER A   1      14.358   4.634 -28.954  0.00  0.00    +0.142 HD
ENDBRANCH   5   6
BRANCH   5   8
ATOM      8  CB  SER A   1      16.406   3.133 -28.529  0.00  0.00    +0.163 C 
BRANCH   8   9
ATOM      9  OG  SER A   1      17.631   2.421 -28.589  0.00  0.00    -0.380 OA
ATOM     10  H   SER A   1      17.600   1.659 -27.958  0.00  0.00    +0.211 HD
ENDBRANCH   8   9
ENDBRANCH   5   8
ENDBRANCH   1   5
BRANCH   3  11
ATOM     11  CA  PHE A   2      16.525   2.574 -32.888  0.00  0.00    +0.141 C 
BRANCH  11  12
ATOM     12  C   PHE A   2      16.864   3.649 -33.919  0.00  0.00    +0.227 C 
ATOM     13  O   PHE A   2      17.769   3.458 -34.733  0.00  0.00    -0.286 OA
ENDBRANCH  11  12
BRANCH  11  14
ATOM     14  CB  PHE A   2      15.513   1.545 -33.425  0.00  0.00    +0.054 C 
BRANCH  14  15
ATOM     15  CG  PHE A   2      15.764   0.135 -32.936  0.00  0.00    -0.020 A 
ATOM     16  CD2 PHE A   2      15.922  -0.130 -31.574  0.00  0.00    -0.004 A 
ATOM     17  CE2 PHE A   2      16.163  -1.432 -31.113  0.00  0.00    -0.000 A 
ATOM     18  CZ  PHE A   2      16.249  -2.484 -32.025  0.00  0.00    -0.000 A 
ATOM     19  CE1 PHE A   2      16.090  -2.230 -33.389  0.00  0.00    -0.000 A 
ATOM     20  CD1 PHE A   2      15.850  -0.923 -33.836  0.00  0.00    -0.004 A 
ENDBRANCH  14  15
ENDBRANCH  11  14
ENDBRANCH   3  11
TORSDOF 8
REMARK  Name = ../refined-set-2016/2xy9/2xy9_pocket.pdb
REMARK  304 active torsions:
REMARK  status: ('A' for Active; 'I' for Inactive)
REMARK    1  A    between atoms: _1  and  _3
REMARK    2  A    between atoms: _3  and  _4
REMARK    3  A    between atoms: _3  and  _6
REMARK    4  A    between atoms: _6  and  _7
REMARK    5  A    between atoms: _12  and  _14
REMARK    6  A    between atoms: _14  and  _15
REMARK    7  A    between atoms: _14  and  _17
REMARK    8  A    between atoms: _17  and  _18
REMARK    9  A    between atoms: _23  and  _25
REMARK   10  A    between atoms: _25  and  _26
REMARK   11  A    between atoms: _25  and  _28
REMARK   12  A    between atoms: _28  and  _29
REMARK   13  A    between atoms: _29  and  _30
REMARK   14  A    between atoms: _33  and  _35
REMARK   15  A    between atoms: _35  and  _36
REMARK   16  A    between atoms: _35  and  _38
REMARK   17  A    between atoms: _38  and  _39
REMARK   18  A    between atoms: _44  and  _45
REMARK   19  A    between atoms: _47  and  _49
REMARK   20  A    between atoms: _49  and  _50
REMARK   21  A    between atoms: _49  and  _52
REMARK   22  A    between atoms: _52  and  _53
REMARK   23  A    between atoms: _56  and  _58
REMARK   24  A    between atoms: _58  and  _59
REMARK   25  A    between atoms: _61  and  _63
REMARK   26  A    between atoms: _63  and  _64
REMARK   27  A    between atoms: _63  and  _66
REMARK   28  A    between atoms: _66  and  _67
REMARK   29  A    between atoms: _72  and  _74
REMARK   30  A    between atoms: _74  and  _75
REMARK   31  A    between atoms: _74  and  _77
REMARK   32  A    between atoms: _77  and  _78
REMARK   33  A    between atoms: _88  and  _90
REMARK   34  A    between atoms: _90  and  _91
REMARK   35  A    between atoms: _90  and  _93
REMARK   36  A    between atoms: _93  and  _94
REMARK   37  A    between atoms: _94  and  _95
REMARK   38  A    between atoms: _100  and  _102
REMARK   39  A    between atoms: _102  and  _103
REMARK   40  A    between atoms: _102  and  _105
REMARK   41  A    between atoms: _105  and  _106
REMARK   42  A    between atoms: _109  and  _111
REMARK   43  A    between atoms: _111  and  _112
REMARK   44  A    between atoms: _111  and  _114
REMARK   45  A    between atoms: _114  and  _115
REMARK   46  A    between atoms: _125  and  _127
REMARK   47  A    between atoms: _127  and  _128
REMARK   48  A    between atoms: _127  and  _130
REMARK   49  A    between atoms: _130  and  _131
REMARK   50  A    between atoms: _133  and  _135
REMARK   51  A    between atoms: _135  and  _136
REMARK   52  A    between atoms: _135  and  _138
REMARK   53  A    between atoms: _138  and  _139
REMARK   54  A    between atoms: _144  and  _146
REMARK   55  A    between atoms: _146  and  _147
REMARK   56  A    between atoms: _146  and  _149
REMARK   57  A    between atoms: _152  and  _154
REMARK   58  A    between atoms: _154  and  _155
REMARK   59  A    between atoms: _154  and  _157
REMARK   60  A    between atoms: _159  and  _161
REMARK   61  A    between atoms: _161  and  _162
REMARK   62  A    between atoms: _161  and  _164
REMARK   63  A    between atoms: _164  and  _165
REMARK   64  A    between atoms: _170  and  _172
REMARK   65  A    between atoms: _172  and  _173
REMARK   66  A    between atoms: _176  and  _178
REMARK   67  A    between atoms: _178  and  _179
REMARK   68  A    between atoms: _178  and  _181
REMARK   69  A    between atoms: _181  and  _182
REMARK   70  A    between atoms: _184  and  _186
REMARK   71  A    between atoms: _186  and  _187
REMARK   72  A    between atoms: _190  and  _192
REMARK   73  A    between atoms: _192  and  _193
REMARK   74  A    between atoms: _192  and  _195
REMARK   75  A    between atoms: _195  and  _196
REMARK   76  A    between atoms: _206  and  _208
REMARK   77  A    between atoms: _208  and  _209
REMARK   78  A    between atoms: _208  and  _211
REMARK   79  A    between atoms: _211  and  _212
REMARK   80  A    between atoms: _215  and  _217
REMARK   81  A    between atoms: _217  and  _218
REMARK   82  A    between atoms: _217  and  _220
REMARK   83  A    between atoms: _220  and  _221
REMARK   84  A    between atoms: _226  and  _227
REMARK   85  A    between atoms: _229  and  _231
REMARK   86  A    between atoms: _231  and  _232
REMARK   87  A    between atoms: _231  and  _234
REMARK   88  A    between atoms: _234  and  _235
REMARK   89  A    between atoms: _235  and  _236
REMARK   90  A    between atoms: _236  and  _237
REMARK   91  A    between atoms: _246  and  _248
REMARK   92  A    between atoms: _248  and  _249
REMARK   93  A    between atoms: _248  and  _251
REMARK   94  A    between atoms: _251  and  _252
REMARK   95  A    between atoms: _255  and  _257
REMARK   96  A    between atoms: _257  and  _258
REMARK   97  A    between atoms: _257  and  _260
REMARK   98  A    between atoms: _260  and  _261
REMARK   99  A    between atoms: _261  and  _262
REMARK  100  A    between atoms: _262  and  _263
REMARK  101  A    between atoms: _263  and  _264
REMARK  102  A    between atoms: _268  and  _270
REMARK  103  A    between atoms: _270  and  _271
REMARK  104  A    between atoms: _270  and  _273
REMARK  105  A    between atoms: _273  and  _274
REMARK  106  A    between atoms: _274  and  _275
REMARK  107  A    between atoms: _280  and  _282
REMARK  108  A    between atoms: _282  and  _283
REMARK  109  A    between atoms: _282  and  _285
REMARK  110  A    between atoms: _285  and  _286
REMARK  111  A    between atoms: _289  and  _291
REMARK  112  A    between atoms: _291  and  _292
REMARK  113  A    between atoms: _291  and  _294
REMARK  114  A    between atoms: _294  and  _295
REMARK  115  A    between atoms: _295  and  _296
REMARK  116  A    between atoms: _299  and  _301
REMARK  117  A    between atoms: _301  and  _302
REMARK  118  A    between atoms: _301  and  _304
REMARK  119  A    between atoms: _304  and  _305
REMARK  120  A    between atoms: _308  and  _310
REMARK  121  A    between atoms: _310  and  _311
REMARK  122  A    between atoms: _310  and  _313
REMARK  123  A    between atoms: _313  and  _314
REMARK  124  A    between atoms: _317  and  _319
REMARK  125  A    between atoms: _319  and  _320
REMARK  126  A    between atoms: _319  and  _322
REMARK  127  A    between atoms: _325  and  _327
REMARK  128  A    between atoms: _327  and  _328
REMARK  129  A    between atoms: _327  and  _330
REMARK  130  A    between atoms: _333  and  _335
REMARK  131  A    between atoms: _335  and  _336
REMARK  132  A    between atoms: _339  and  _341
REMARK  133  A    between atoms: _341  and  _342
REMARK  134  A    between atoms: _341  and  _344
REMARK  135  A    between atoms: _344  and  _345
REMARK  136  A    between atoms: _350  and  _352
REMARK  137  A    between atoms: _352  and  _353
REMARK  138  A    between atoms: _352  and  _355
REMARK  139  A    between atoms: _355  and  _356
REMARK  140  A    between atoms: _360  and  ZN_772
REMARK  141  A    between atoms: _361  and  _363
REMARK  142  A    between atoms: _363  and  _364
REMARK  143  A    between atoms: _363  and  _366
REMARK  144  A    between atoms: _366  and  _367
REMARK  145  A    between atoms: _367  and  _368
REMARK  146  A    between atoms: _371  and  _373
REMARK  147  A    between atoms: _373  and  _374
REMARK  148  A    between atoms: _373  and  _376
REMARK  149  A    between atoms: _376  and  _377
REMARK  150  A    between atoms: _377  and  _378
REMARK  151  A    between atoms: _380  and  _382
REMARK  152  A    between atoms: _382  and  _383
REMARK  153  A    between atoms: _382  and  _385
REMARK  154  A    between atoms: _385  and  _386
REMARK  155  A    between atoms: _390  and  ZN_772
REMARK  156  A    between atoms: _391  and  _393
REMARK  157  A    between atoms: _393  and  _394
REMARK  158  A    between atoms: _393  and  _396
REMARK  159  A    between atoms: _396  and  _397
REMARK  160  A    between atoms: _400  and  _402
REMARK  161  A    between atoms: _402  and  _403
REMARK  162  A    between atoms: _402  and  _405
REMARK  163  A    between atoms: _405  and  _406
REMARK  164  A    between atoms: _411  and  _412
REMARK  165  A    between atoms: _414  and  _416
REMARK  166  A    between atoms: _416  and  _417
REMARK  167  A    between atoms: _416  and  _419
REMARK  168  A    between atoms: _419  and  _420
REMARK  169  A    between atoms: _426  and  _428
REMARK  170  A    between atoms: _428  and  _429
REMARK  171  A    between atoms: _428  and  _431
REMARK  172  A    between atoms: _431  and  _432
REMARK  173  A    between atoms: _437  and  _438
REMARK  174  A    between atoms: _440  and  _442
REMARK  175  A    between atoms: _442  and  _443
REMARK  176  A    between atoms: _442  and  _445
REMARK  177  A    between atoms: _445  and  _446
REMARK  178  A    between atoms: _446  and  _447
REMARK  179  A    between atoms: _447  and  _448
REMARK  180  A    between atoms: _457  and  _459
REMARK  181  A    between atoms: _459  and  _460
REMARK  182  A    between atoms: _459  and  _462
REMARK  183  A    between atoms: _462  and  _463
REMARK  184  A    between atoms: _463  and  _464
REMARK  185  A    between atoms: _467  and  _469
REMARK  186  A    between atoms: _469  and  _470
REMARK  187  A    between atoms: _472  and  _474
REMARK  188  A    between atoms: _474  and  _475
REMARK  189  A    between atoms: _474  and  _477
REMARK  190  A    between atoms: _477  and  _478
REMARK  191  A    between atoms: _484  and  _485
REMARK  192  A    between atoms: _490  and  _492
REMARK  193  A    between atoms: _492  and  _493
REMARK  194  A    between atoms: _495  and  _497
REMARK  195  A    between atoms: _497  and  _498
REMARK  196  A    between atoms: _497  and  _500
REMARK  197  A    between atoms: _500  and  _501
REMARK  198  A    between atoms: _507  and  _509
REMARK  199  A    between atoms: _509  and  _510
REMARK  200  A    between atoms: _509  and  _512
REMARK  201  A    between atoms: _512  and  _513
REMARK  202  A    between atoms: _518  and  _520
REMARK  203  A    between atoms: _520  and  _521
REMARK  204  A    between atoms: _520  and  _523
REMARK  205  A    between atoms: _523  and  _524
REMARK  206  A    between atoms: _524  and  _525
REMARK  207  A    between atoms: _525  and  _526
REMARK  208  A    between atoms: _526  and  ZN_772
REMARK  209  A    between atoms: _528  and  _530
REMARK  210  A    between atoms: _530  and  _531
REMARK  211  A    between atoms: _534  and  _536
REMARK  212  A    between atoms: _536  and  _537
REMARK  213  A    between atoms: _539  and  _541
REMARK  214  A    between atoms: _541  and  _542
REMARK  215  A    between atoms: _541  and  _544
REMARK  216  A    between atoms: _544  and  _545
REMARK  217  A    between atoms: _548  and  _550
REMARK  218  A    between atoms: _550  and  _551
REMARK  219  A    between atoms: _554  and  _556
REMARK  220  A    between atoms: _556  and  _557
REMARK  221  A    between atoms: _556  and  _559
REMARK  222  A    between atoms: _559  and  _560
REMARK  223  A    between atoms: _563  and  _565
REMARK  224  A    between atoms: _565  and  _566
REMARK  225  A    between atoms: _565  and  _568
REMARK  226  A    between atoms: _568  and  _569
REMARK  227  A    between atoms: _569  and  _570
REMARK  228  A    between atoms: _570  and  _571
REMARK  229  A    between atoms: _571  and  _572
REMARK  230  A    between atoms: _576  and  _578
REMARK  231  A    between atoms: _578  and  _579
REMARK  232  A    between atoms: _578  and  _581
REMARK  233  A    between atoms: _581  and  _582
REMARK  234  A    between atoms: _588  and  _590
REMARK  235  A    between atoms: _590  and  _591
REMARK  236  A    between atoms: _590  and  _593
REMARK  237  A    between atoms: _593  and  _594
REMARK  238  A    between atoms: _600  and  _602
REMARK  239  A    between atoms: _602  and  _603
REMARK  240  A    between atoms: _602  and  _605
REMARK  241  A    between atoms: _605  and  _606
REMARK  242  A    between atoms: _608  and  _610
REMARK  243  A    between atoms: _610  and  _611
REMARK  244  A    between atoms: _610  and  _613
REMARK  245  A    between atoms: _616  and  _618
REMARK  246  A    between atoms: _618  and  _619
REMARK  247  A    between atoms: _618  and  _621
REMARK  248  A    between atoms: _621  and  _622
REMARK  249  A    between atoms: _622  and  _623
REMARK  250  A    between atoms: _623  and  _624
REMARK  251  A    between atoms: _624  and  _625
REMARK  252  A    between atoms: _629  and  _631
REMARK  253  A    between atoms: _631  and  _632
REMARK  254  A    between atoms: _631  and  _634
REMARK  255  A    between atoms: _634  and  _635
REMARK  256  A    between atoms: _641  and  _643
REMARK  257  A    between atoms: _643  and  _644
REMARK  258  A    between atoms: _643  and  _646
REMARK  259  A    between atoms: _646  and  _647
REMARK  260  A    between atoms: _652  and  _654
REMARK  261  A    between atoms: _654  and  _655
REMARK  262  A    between atoms: _654  and  _657
REMARK  263  A    between atoms: _657  and  _658
REMARK  264  A    between atoms: _660  and  _662
REMARK  265  A    between atoms: _662  and  _663
REMARK  266  A    between atoms: _662  and  _665
REMARK  267  A    between atoms: _665  and  _666
REMARK  268  A    between atoms: _668  and  _670
REMARK  269  A    between atoms: _670  and  _671
REMARK  270  A    between atoms: _670  and  _673
REMARK  271  A    between atoms: _677  and  _678
REMARK  272  A    between atoms: _683  and  _685
REMARK  273  A    between atoms: _685  and  _686
REMARK  274  A    between atoms: _685  and  _688
REMARK  275  A    between atoms: _688  and  _689
REMARK  276  A    between atoms: _694  and  _695
REMARK  277  A    between atoms: _697  and  _699
REMARK  278  A    between atoms: _699  and  _700
REMARK  279  A    between atoms: _699  and  _702
REMARK  280  A    between atoms: _702  and  _703
REMARK  281  A    between atoms: _703  and  _704
REMARK  282  A    between atoms: _704  and  _705
REMARK  283  A    between atoms: _714  and  _716
REMARK  284  A    between atoms: _716  and  _717
REMARK  285  A    between atoms: _716  and  _719
REMARK  286  A    between atoms: _719  and  _720
REMARK  287  A    between atoms: _725  and  _726
REMARK  288  A    between atoms: _728  and  _730
REMARK  289  A    between atoms: _730  and  _731
REMARK  290  A    between atoms: _730  and  _733
REMARK  291  A    between atoms: _733  and  _734
REMARK  292  A    between atoms: _740  and  _742
REMARK  293  A    between atoms: _742  and  _743
REMARK  294  A    between atoms: _742  and  _745
REMARK  295  A    between atoms: _745  and  _746
REMARK  296  A    between atoms: _748  and  _750
REMARK  297  A    between atoms: _750  and  _751
REMARK  298  A    between atoms: _750  and  _753
REMARK  299  A    between atoms: _753  and  _754
REMARK  300  A    between atoms: _760  and  _762
REMARK  301  A    between atoms: _762  and  _763
REMARK  302  A    between atoms: _762  and  _765
REMARK  303  A    between atoms: _765  and  _766
REMARK  304  A    between atoms: _766  and  _767
REMARK                            x       y       z     vdW  Elec       q    Type
REMARK                         _______ _______ _______ _____ _____    ______ ____
ROOT
ATOM      1  CB  GLN A   1      21.189   3.296 -31.661  0.00  0.00    +0.035 C 
ENDROOT
BRANCH   1   2
ATOM      2  CA  GLN A   1      21.488   4.742 -32.106  0.00  0.00    +0.134 C 
BRANCH   2   3
ATOM      3  N   GLN A   1      20.278   5.563 -32.212  0.00  0.00    -0.239 NA
ATOM      4  H   GLN A   1      19.343   5.115 -32.131  0.00  0.00    +0.142 HD
ENDBRANCH   2   3
BRANCH   2   5
ATOM      5  C   GLN A   1      22.321   4.781 -33.389  0.00  0.00    +0.224 C 
ATOM      6  O   GLN A   1      23.547   4.709 -33.331  0.00  0.00    -0.287 OA
ENDBRANCH   2   5
ENDBRANCH   1   2
BRANCH   1   7
ATOM      7  CG  GLN A   1      20.485   2.398 -32.692  0.00  0.00    +0.087 C 
BRANCH   7   8
ATOM      8  CD  GLN A   1      20.124   1.038 -32.116  0.00  0.00    +0.219 C 
ATOM      9  NE2 GLN A   1      19.329   1.034 -31.044  0.00  0.00    -0.329 N 
ATOM     10 HE21 GLN A   1      19.064   0.133 -30.596  0.00  0.00    +0.145 HD
ATOM     11 HE22 GLN A   1      18.974   1.931 -30.656  0.00  0.00    +0.145 HD
ATOM     12  OE1 GLN A   1      20.570   0.004 -32.613  0.00  0.00    -0.275 OA
ENDBRANCH   7   8
ENDBRANCH   1   7
TORSDOF 5
REMARK  Name = ../refined-set-2016/2xy9/2xy9_pocket.pdb
REMARK  304 active torsions:
REMARK  status: ('A' for Active; 'I' for Inactive)
REMARK    1  A    between atoms: _1  and  _3
REMARK    2  A    between atoms: _3  and  _4
REMARK    3  A    between atoms: _3  and  _6
REMARK    4  A    between atoms: _6  and  _7
REMARK    5  A    between atoms: _12  and  _14
REMARK    6  A    between atoms: _14  and  _15
REMARK    7  A    between atoms: _14  and  _17
REMARK    8  A    between atoms: _17  and  _18
REMARK    9  A    between atoms: _23  and  _25
REMARK   10  A    between atoms: _25  and  _26
REMARK   11  A    between atoms: _25  and  _28
REMARK   12  A    between atoms: _28  and  _29
REMARK   13  A    between atoms: _29  and  _30
REMARK   14  A    between atoms: _33  and  _35
REMARK   15  A    between atoms: _35  and  _36
REMARK   16  A    between atoms: _35  and  _38
REMARK   17  A    between atoms: _38  and  _39
REMARK   18  A    between atoms: _44  and  _45
REMARK   19  A    between atoms: _47  and  _49
REMARK   20  A    between atoms: _49  and  _50
REMARK   21  A    between atoms: _49  and  _52
REMARK   22  A    between atoms: _52  and  _53
REMARK   23  A    between atoms: _56  and  _58
REMARK   24  A    between atoms: _58  and  _59
REMARK   25  A    between atoms: _61  and  _63
REMARK   26  A    between atoms: _63  and  _64
REMARK   27  A    between atoms: _63  and  _66
REMARK   28  A    between atoms: _66  and  _67
REMARK   29  A    between atoms: _72  and  _74
REMARK   30  A    between atoms: _74  and  _75
REMARK   31  A    between atoms: _74  and  _77
REMARK   32  A    between atoms: _77  and  _78
REMARK   33  A    between atoms: _88  and  _90
REMARK   34  A    between atoms: _90  and  _91
REMARK   35  A    between atoms: _90  and  _93
REMARK   36  A    between atoms: _93  and  _94
REMARK   37  A    between atoms: _94  and  _95
REMARK   38  A    between atoms: _100  and  _102
REMARK   39  A    between atoms: _102  and  _103
REMARK   40  A    between atoms: _102  and  _105
REMARK   41  A    between atoms: _105  and  _106
REMARK   42  A    between atoms: _109  and  _111
REMARK   43  A    between atoms: _111  and  _112
REMARK   44  A    between atoms: _111  and  _114
REMARK   45  A    between atoms: _114  and  _115
REMARK   46  A    between atoms: _125  and  _127
REMARK   47  A    between atoms: _127  and  _128
REMARK   48  A    between atoms: _127  and  _130
REMARK   49  A    between atoms: _130  and  _131
REMARK   50  A    between atoms: _133  and  _135
REMARK   51  A    between atoms: _135  and  _136
REMARK   52  A    between atoms: _135  and  _138
REMARK   53  A    between atoms: _138  and  _139
REMARK   54  A    between atoms: _144  and  _146
REMARK   55  A    between atoms: _146  and  _147
REMARK   56  A    between atoms: _146  and  _149
REMARK   57  A    between atoms: _152  and  _154
REMARK   58  A    between atoms: _154  and  _155
REMARK   59  A    between atoms: _154  and  _157
REMARK   60  A    between atoms: _159  and  _161
REMARK   61  A    between atoms: _161  and  _162
REMARK   62  A    between atoms: _161  and  _164
REMARK   63  A    between atoms: _164  and  _165
REMARK   64  A    between atoms: _170  and  _172
REMARK   65  A    between atoms: _172  and  _173
REMARK   66  A    between atoms: _176  and  _178
REMARK   67  A    between atoms: _178  and  _179
REMARK   68  A    between atoms: _178  and  _181
REMARK   69  A    between atoms: _181  and  _182
REMARK   70  A    between atoms: _184  and  _186
REMARK   71  A    between atoms: _186  and  _187
REMARK   72  A    between atoms: _190  and  _192
REMARK   73  A    between atoms: _192  and  _193
REMARK   74  A    between atoms: _192  and  _195
REMARK   75  A    between atoms: _195  and  _196
REMARK   76  A    between atoms: _206  and  _208
REMARK   77  A    between atoms: _208  and  _209
REMARK   78  A    between atoms: _208  and  _211
REMARK   79  A    between atoms: _211  and  _212
REMARK   80  A    between atoms: _215  and  _217
REMARK   81  A    between atoms: _217  and  _218
REMARK   82  A    between atoms: _217  and  _220
REMARK   83  A    between atoms: _220  and  _221
REMARK   84  A    between atoms: _226  and  _227
REMARK   85  A    between atoms: _229  and  _231
REMARK   86  A    between atoms: _231  and  _232
REMARK   87  A    between atoms: _231  and  _234
REMARK   88  A    between atoms: _234  and  _235
REMARK   89  A    between atoms: _235  and  _236
REMARK   90  A    between atoms: _236  and  _237
REMARK   91  A    between atoms: _246  and  _248
REMARK   92  A    between atoms: _248  and  _249
REMARK   93  A    between atoms: _248  and  _251
REMARK   94  A    between atoms: _251  and  _252
REMARK   95  A    between atoms: _255  and  _257
REMARK   96  A    between atoms: _257  and  _258
REMARK   97  A    between atoms: _257  and  _260
REMARK   98  A    between atoms: _260  and  _261
REMARK   99  A    between atoms: _261  and  _262
REMARK  100  A    between atoms: _262  and  _263
REMARK  101  A    between atoms: _263  and  _264
REMARK  102  A    between atoms: _268  and  _270
REMARK  103  A    between atoms: _270  and  _271
REMARK  104  A    between atoms: _270  and  _273
REMARK  105  A    between atoms: _273  and  _274
REMARK  106  A    between atoms: _274  and  _275
REMARK  107  A    between atoms: _280  and  _282
REMARK  108  A    between atoms: _282  and  _283
REMARK  109  A    between atoms: _282  and  _285
REMARK  110  A    between atoms: _285  and  _286
REMARK  111  A    between atoms: _289  and  _291
REMARK  112  A    between atoms: _291  and  _292
REMARK  113  A    between atoms: _291  and  _294
REMARK  114  A    between atoms: _294  and  _295
REMARK  115  A    between atoms: _295  and  _296
REMARK  116  A    between atoms: _299  and  _301
REMARK  117  A    between atoms: _301  and  _302
REMARK  118  A    between atoms: _301  and  _304
REMARK  119  A    between atoms: _304  and  _305
REMARK  120  A    between atoms: _308  and  _310
REMARK  121  A    between atoms: _310  and  _311
REMARK  122  A    between atoms: _310  and  _313
REMARK  123  A    between atoms: _313  and  _314
REMARK  124  A    between atoms: _317  and  _319
REMARK  125  A    between atoms: _319  and  _320
REMARK  126  A    between atoms: _319  and  _322
REMARK  127  A    between atoms: _325  and  _327
REMARK  128  A    between atoms: _327  and  _328
REMARK  129  A    between atoms: _327  and  _330
REMARK  130  A    between atoms: _333  and  _335
REMARK  131  A    between atoms: _335  and  _336
REMARK  132  A    between atoms: _339  and  _341
REMARK  133  A    between atoms: _341  and  _342
REMARK  134  A    between atoms: _341  and  _344
REMARK  135  A    between atoms: _344  and  _345
REMARK  136  A    between atoms: _350  and  _352
REMARK  137  A    between atoms: _352  and  _353
REMARK  138  A    between atoms: _352  and  _355
REMARK  139  A    between atoms: _355  and  _356
REMARK  140  A    between atoms: _360  and  ZN_772
REMARK  141  A    between atoms: _361  and  _363
REMARK  142  A    between atoms: _363  and  _364
REMARK  143  A    between atoms: _363  and  _366
REMARK  144  A    between atoms: _366  and  _367
REMARK  145  A    between atoms: _367  and  _368
REMARK  146  A    between atoms: _371  and  _373
REMARK  147  A    between atoms: _373  and  _374
REMARK  148  A    between atoms: _373  and  _376
REMARK  149  A    between atoms: _376  and  _377
REMARK  150  A    between atoms: _377  and  _378
REMARK  151  A    between atoms: _380  and  _382
REMARK  152  A    between atoms: _382  and  _383
REMARK  153  A    between atoms: _382  and  _385
REMARK  154  A    between atoms: _385  and  _386
REMARK  155  A    between atoms: _390  and  ZN_772
REMARK  156  A    between atoms: _391  and  _393
REMARK  157  A    between atoms: _393  and  _394
REMARK  158  A    between atoms: _393  and  _396
REMARK  159  A    between atoms: _396  and  _397
REMARK  160  A    between atoms: _400  and  _402
REMARK  161  A    between atoms: _402  and  _403
REMARK  162  A    between atoms: _402  and  _405
REMARK  163  A    between atoms: _405  and  _406
REMARK  164  A    between atoms: _411  and  _412
REMARK  165  A    between atoms: _414  and  _416
REMARK  166  A    between atoms: _416  and  _417
REMARK  167  A    between atoms: _416  and  _419
REMARK  168  A    between atoms: _419  and  _420
REMARK  169  A    between atoms: _426  and  _428
REMARK  170  A    between atoms: _428  and  _429
REMARK  171  A    between atoms: _428  and  _431
REMARK  172  A    between atoms: _431  and  _432
REMARK  173  A    between atoms: _437  and  _438
REMARK  174  A    between atoms: _440  and  _442
REMARK  175  A    between atoms: _442  and  _443
REMARK  176  A    between atoms: _442  and  _445
REMARK  177  A    between atoms: _445  and  _446
REMARK  178  A    between atoms: _446  and  _447
REMARK  179  A    between atoms: _447  and  _448
REMARK  180  A    between atoms: _457  and  _459
REMARK  181  A    between atoms: _459  and  _460
REMARK  182  A    between atoms: _459  and  _462
REMARK  183  A    between atoms: _462  and  _463
REMARK  184  A    between atoms: _463  and  _464
REMARK  185  A    between atoms: _467  and  _469
REMARK  186  A    between atoms: _469  and  _470
REMARK  187  A    between atoms: _472  and  _474
REMARK  188  A    between atoms: _474  and  _475
REMARK  189  A    between atoms: _474  and  _477
REMARK  190  A    between atoms: _477  and  _478
REMARK  191  A    between atoms: _484  and  _485
REMARK  192  A    between atoms: _490  and  _492
REMARK  193  A    between atoms: _492  and  _493
REMARK  194  A    between atoms: _495  and  _497
REMARK  195  A    between atoms: _497  and  _498
REMARK  196  A    between atoms: _497  and  _500
REMARK  197  A    between atoms: _500  and  _501
REMARK  198  A    between atoms: _507  and  _509
REMARK  199  A    between atoms: _509  and  _510
REMARK  200  A    between atoms: _509  and  _512
REMARK  201  A    between atoms: _512  and  _513
REMARK  202  A    between atoms: _518  and  _520
REMARK  203  A    between atoms: _520  and  _521
REMARK  204  A    between atoms: _520  and  _523
REMARK  205  A    between atoms: _523  and  _524
REMARK  206  A    between atoms: _524  and  _525
REMARK  207  A    between atoms: _525  and  _526
REMARK  208  A    between atoms: _526  and  ZN_772
REMARK  209  A    between atoms: _528  and  _530
REMARK  210  A    between atoms: _530  and  _531
REMARK  211  A    between atoms: _534  and  _536
REMARK  212  A    between atoms: _536  and  _537
REMARK  213  A    between atoms: _539  and  _541
REMARK  214  A    between atoms: _541  and  _542
REMARK  215  A    between atoms: _541  and  _544
REMARK  216  A    between atoms: _544  and  _545
REMARK  217  A    between atoms: _548  and  _550
REMARK  218  A    between atoms: _550  and  _551
REMARK  219  A    between atoms: _554  and  _556
REMARK  220  A    between atoms: _556  and  _557
REMARK  221  A    between atoms: _556  and  _559
REMARK  222  A    between atoms: _559  and  _560
REMARK  223  A    between atoms: _563  and  _565
REMARK  224  A    between atoms: _565  and  _566
REMARK  225  A    between atoms: _565  and  _568
REMARK  226  A    between atoms: _568  and  _569
REMARK  227  A    between atoms: _569  and  _570
REMARK  228  A    between atoms: _570  and  _571
REMARK  229  A    between atoms: _571  and  _572
REMARK  230  A    between atoms: _576  and  _578
REMARK  231  A    between atoms: _578  and  _579
REMARK  232  A    between atoms: _578  and  _581
REMARK  233  A    between atoms: _581  and  _582
REMARK  234  A    between atoms: _588  and  _590
REMARK  235  A    between atoms: _590  and  _591
REMARK  236  A    between atoms: _590  and  _593
REMARK  237  A    between atoms: _593  and  _594
REMARK  238  A    between atoms: _600  and  _602
REMARK  239  A    between atoms: _602  and  _603
REMARK  240  A    between atoms: _602  and  _605
REMARK  241  A    between atoms: _605  and  _606
REMARK  242  A    between atoms: _608  and  _610
REMARK  243  A    between atoms: _610  and  _611
REMARK  244  A    between atoms: _610  and  _613
REMARK  245  A    between atoms: _616  and  _618
REMARK  246  A    between atoms: _618  and  _619
REMARK  247  A    between atoms: _618  and  _621
REMARK  248  A    between atoms: _621  and  _622
REMARK  249  A    between atoms: _622  and  _623
REMARK  250  A    between atoms: _623  and  _624
REMARK  251  A    between atoms: _624  and  _625
REMARK  252  A    between atoms: _629  and  _631
REMARK  253  A    between atoms: _631  and  _632
REMARK  254  A    between atoms: _631  and  _634
REMARK  255  A    between atoms: _634  and  _635
REMARK  256  A    between atoms: _641  and  _643
REMARK  257  A    between atoms: _643  and  _644
REMARK  258  A    between atoms: _643  and  _646
REMARK  259  A    between atoms: _646  and  _647
REMARK  260  A    between atoms: _652  and  _654
REMARK  261  A    between atoms: _654  and  _655
REMARK  262  A    between atoms: _654  and  _657
REMARK  263  A    between atoms: _657  and  _658
REMARK  264  A    between atoms: _660  and  _662
REMARK  265  A    between atoms: _662  and  _663
REMARK  266  A    between atoms: _662  and  _665
REMARK  267  A    between atoms: _665  and  _666
REMARK  268  A    between atoms: _668  and  _670
REMARK  269  A    between atoms: _670  and  _671
REMARK  270  A    between atoms: _670  and  _673
REMARK  271  A    between atoms: _677  and  _678
REMARK  272  A    between atoms: _683  and  _685
REMARK  273  A    between atoms: _685  and  _686
REMARK  274  A    between atoms: _685  and  _688
REMARK  275  A    between atoms: _688  and  _689
REMARK  276  A    between atoms: _694  and  _695
REMARK  277  A    between atoms: _697  and  _699
REMARK  278  A    between atoms: _699  and  _700
REMARK  279  A    between atoms: _699  and  _702
REMARK  280  A    between atoms: _702  and  _703
REMARK  281  A    between atoms: _703  and  _704
REMARK  282  A    between atoms: _704  and  _705
REMARK  283  A    between atoms: _714  and  _716
REMARK  284  A    between atoms: _716  and  _717
REMARK  285  A    between atoms: _716  and  _719
REMARK  286  A    between atoms: _719  and  _720
REMARK  287  A    between atoms: _725  and  _726
REMARK  288  A    between atoms: _728  and  _730
REMARK  289  A    between atoms: _730  and  _731
REMARK  290  A    between atoms: _730  and  _733
REMARK  291  A    between atoms: _733  and  _734
REMARK  292  A    between atoms: _740  and  _742
REMARK  293  A    between atoms: _742  and  _743
REMARK  294  A    between atoms: _742  and  _745
REMARK  295  A    between atoms: _745  and  _746
REMARK  296  A    between atoms: _748  and  _750
REMARK  297  A    between atoms: _750  and  _751
REMARK  298  A    between atoms: _750  and  _753
REMARK  299  A    between atoms: _753  and  _754
REMARK  300  A    between atoms: _760  and  _762
REMARK  301  A    between atoms: _762  and  _763
REMARK  302  A    between atoms: _762  and  _765
REMARK  303  A    between atoms: _765  and  _766
REMARK  304  A    between atoms: _766  and  _767
REMARK                            x       y       z     vdW  Elec       q    Type
REMARK                         _______ _______ _______ _____ _____    ______ ____
ROOT
ATOM      1  O   HOH     1       6.227  -6.392 -10.562  0.00  0.00    +0.000 OA
ENDROOT
TORSDOF 0
REMARK  Name = ../refined-set-2016/2xy9/2xy9_pocket.pdb
REMARK  304 active torsions:
REMARK  status: ('A' for Active; 'I' for Inactive)
REMARK    1  A    between atoms: _1  and  _3
REMARK    2  A    between atoms: _3  and  _4
REMARK    3  A    between atoms: _3  and  _6
REMARK    4  A    between atoms: _6  and  _7
REMARK    5  A    between atoms: _12  and  _14
REMARK    6  A    between atoms: _14  and  _15
REMARK    7  A    between atoms: _14  and  _17
REMARK    8  A    between atoms: _17  and  _18
REMARK    9  A    between atoms: _23  and  _25
REMARK   10  A    between atoms: _25  and  _26
REMARK   11  A    between atoms: _25  and  _28
REMARK   12  A    between atoms: _28  and  _29
REMARK   13  A    between atoms: _29  and  _30
REMARK   14  A    between atoms: _33  and  _35
REMARK   15  A    between atoms: _35  and  _36
REMARK   16  A    between atoms: _35  and  _38
REMARK   17  A    between atoms: _38  and  _39
REMARK   18  A    between atoms: _44  and  _45
REMARK   19  A    between atoms: _47  and  _49
REMARK   20  A    between atoms: _49  and  _50
REMARK   21  A    between atoms: _49  and  _52
REMARK   22  A    between atoms: _52  and  _53
REMARK   23  A    between atoms: _56  and  _58
REMARK   24  A    between atoms: _58  and  _59
REMARK   25  A    between atoms: _61  and  _63
REMARK   26  A    between atoms: _63  and  _64
REMARK   27  A    between atoms: _63  and  _66
REMARK   28  A    between atoms: _66  and  _67
REMARK   29  A    between atoms: _72  and  _74
REMARK   30  A    between atoms: _74  and  _75
REMARK   31  A    between atoms: _74  and  _77
REMARK   32  A    between atoms: _77  and  _78
REMARK   33  A    between atoms: _88  and  _90
REMARK   34  A    between atoms: _90  and  _91
REMARK   35  A    between atoms: _90  and  _93
REMARK   36  A    between atoms: _93  and  _94
REMARK   37  A    between atoms: _94  and  _95
REMARK   38  A    between atoms: _100  and  _102
REMARK   39  A    between atoms: _102  and  _103
REMARK   40  A    between atoms: _102  and  _105
REMARK   41  A    between atoms: _105  and  _106
REMARK   42  A    between atoms: _109  and  _111
REMARK   43  A    between atoms: _111  and  _112
REMARK   44  A    between atoms: _111  and  _114
REMARK   45  A    between atoms: _114  and  _115
REMARK   46  A    between atoms: _125  and  _127
REMARK   47  A    between atoms: _127  and  _128
REMARK   48  A    between atoms: _127  and  _130
REMARK   49  A    between atoms: _130  and  _131
REMARK   50  A    between atoms: _133  and  _135
REMARK   51  A    between atoms: _135  and  _136
REMARK   52  A    between atoms: _135  and  _138
REMARK   53  A    between atoms: _138  and  _139
REMARK   54  A    between atoms: _144  and  _146
REMARK   55  A    between atoms: _146  and  _147
REMARK   56  A    between atoms: _146  and  _149
REMARK   57  A    between atoms: _152  and  _154
REMARK   58  A    between atoms: _154  and  _155
REMARK   59  A    between atoms: _154  and  _157
REMARK   60  A    between atoms: _159  and  _161
REMARK   61  A    between atoms: _161  and  _162
REMARK   62  A    between atoms: _161  and  _164
REMARK   63  A    between atoms: _164  and  _165
REMARK   64  A    between atoms: _170  and  _172
REMARK   65  A    between atoms: _172  and  _173
REMARK   66  A    between atoms: _176  and  _178
REMARK   67  A    between atoms: _178  and  _179
REMARK   68  A    between atoms: _178  and  _181
REMARK   69  A    between atoms: _181  and  _182
REMARK   70  A    between atoms: _184  and  _186
REMARK   71  A    between atoms: _186  and  _187
REMARK   72  A    between atoms: _190  and  _192
REMARK   73  A    between atoms: _192  and  _193
REMARK   74  A    between atoms: _192  and  _195
REMARK   75  A    between atoms: _195  and  _196
REMARK   76  A    between atoms: _206  and  _208
REMARK   77  A    between atoms: _208  and  _209
REMARK   78  A    between atoms: _208  and  _211
REMARK   79  A    between atoms: _211  and  _212
REMARK   80  A    between atoms: _215  and  _217
REMARK   81  A    between atoms: _217  and  _218
REMARK   82  A    between atoms: _217  and  _220
REMARK   83  A    between atoms: _220  and  _221
REMARK   84  A    between atoms: _226  and  _227
REMARK   85  A    between atoms: _229  and  _231
REMARK   86  A    between atoms: _231  and  _232
REMARK   87  A    between atoms: _231  and  _234
REMARK   88  A    between atoms: _234  and  _235
REMARK   89  A    between atoms: _235  and  _236
REMARK   90  A    between atoms: _236  and  _237
REMARK   91  A    between atoms: _246  and  _248
REMARK   92  A    between atoms: _248  and  _249
REMARK   93  A    between atoms: _248  and  _251
REMARK   94  A    between atoms: _251  and  _252
REMARK   95  A    between atoms: _255  and  _257
REMARK   96  A    between atoms: _257  and  _258
REMARK   97  A    between atoms: _257  and  _260
REMARK   98  A    between atoms: _260  and  _261
REMARK   99  A    between atoms: _261  and  _262
REMARK  100  A    between atoms: _262  and  _263
REMARK  101  A    between atoms: _263  and  _264
REMARK  102  A    between atoms: _268  and  _270
REMARK  103  A    between atoms: _270  and  _271
REMARK  104  A    between atoms: _270  and  _273
REMARK  105  A    between atoms: _273  and  _274
REMARK  106  A    between atoms: _274  and  _275
REMARK  107  A    between atoms: _280  and  _282
REMARK  108  A    between atoms: _282  and  _283
REMARK  109  A    between atoms: _282  and  _285
REMARK  110  A    between atoms: _285  and  _286
REMARK  111  A    between atoms: _289  and  _291
REMARK  112  A    between atoms: _291  and  _292
REMARK  113  A    between atoms: _291  and  _294
REMARK  114  A    between atoms: _294  and  _295
REMARK  115  A    between atoms: _295  and  _296
REMARK  116  A    between atoms: _299  and  _301
REMARK  117  A    between atoms: _301  and  _302
REMARK  118  A    between atoms: _301  and  _304
REMARK  119  A    between atoms: _304  and  _305
REMARK  120  A    between atoms: _308  and  _310
REMARK  121  A    between atoms: _310  and  _311
REMARK  122  A    between atoms: _310  and  _313
REMARK  123  A    between atoms: _313  and  _314
REMARK  124  A    between atoms: _317  and  _319
REMARK  125  A    between atoms: _319  and  _320
REMARK  126  A    between atoms: _319  and  _322
REMARK  127  A    between atoms: _325  and  _327
REMARK  128  A    between atoms: _327  and  _328
REMARK  129  A    between atoms: _327  and  _330
REMARK  130  A    between atoms: _333  and  _335
REMARK  131  A    between atoms: _335  and  _336
REMARK  132  A    between atoms: _339  and  _341
REMARK  133  A    between atoms: _341  and  _342
REMARK  134  A    between atoms: _341  and  _344
REMARK  135  A    between atoms: _344  and  _345
REMARK  136  A    between atoms: _350  and  _352
REMARK  137  A    between atoms: _352  and  _353
REMARK  138  A    between atoms: _352  and  _355
REMARK  139  A    between atoms: _355  and  _356
REMARK  140  A    between atoms: _360  and  ZN_772
REMARK  141  A    between atoms: _361  and  _363
REMARK  142  A    between atoms: _363  and  _364
REMARK  143  A    between atoms: _363  and  _366
REMARK  144  A    between atoms: _366  and  _367
REMARK  145  A    between atoms: _367  and  _368
REMARK  146  A    between atoms: _371  and  _373
REMARK  147  A    between atoms: _373  and  _374
REMARK  148  A    between atoms: _373  and  _376
REMARK  149  A    between atoms: _376  and  _377
REMARK  150  A    between atoms: _377  and  _378
REMARK  151  A    between atoms: _380  and  _382
REMARK  152  A    between atoms: _382  and  _383
REMARK  153  A    between atoms: _382  and  _385
REMARK  154  A    between atoms: _385  and  _386
REMARK  155  A    between atoms: _390  and  ZN_772
REMARK  156  A    between atoms: _391  and  _393
REMARK  157  A    between atoms: _393  and  _394
REMARK  158  A    between atoms: _393  and  _396
REMARK  159  A    between atoms: _396  and  _397
REMARK  160  A    between atoms: _400  and  _402
REMARK  161  A    between atoms: _402  and  _403
REMARK  162  A    between atoms: _402  and  _405
REMARK  163  A    between atoms: _405  and  _406
REMARK  164  A    between atoms: _411  and  _412
REMARK  165  A    between atoms: _414  and  _416
REMARK  166  A    between atoms: _416  and  _417
REMARK  167  A    between atoms: _416  and  _419
REMARK  168  A    between atoms: _419  and  _420
REMARK  169  A    between atoms: _426  and  _428
REMARK  170  A    between atoms: _428  and  _429
REMARK  171  A    between atoms: _428  and  _431
REMARK  172  A    between atoms: _431  and  _432
REMARK  173  A    between atoms: _437  and  _438
REMARK  174  A    between atoms: _440  and  _442
REMARK  175  A    between atoms: _442  and  _443
REMARK  176  A    between atoms: _442  and  _445
REMARK  177  A    between atoms: _445  and  _446
REMARK  178  A    between atoms: _446  and  _447
REMARK  179  A    between atoms: _447  and  _448
REMARK  180  A    between atoms: _457  and  _459
REMARK  181  A    between atoms: _459  and  _460
REMARK  182  A    between atoms: _459  and  _462
REMARK  183  A    between atoms: _462  and  _463
REMARK  184  A    between atoms: _463  and  _464
REMARK  185  A    between atoms: _467  and  _469
REMARK  186  A    between atoms: _469  and  _470
REMARK  187  A    between atoms: _472  and  _474
REMARK  188  A    between atoms: _474  and  _475
REMARK  189  A    between atoms: _474  and  _477
REMARK  190  A    between atoms: _477  and  _478
REMARK  191  A    between atoms: _484  and  _485
REMARK  192  A    between atoms: _490  and  _492
REMARK  193  A    between atoms: _492  and  _493
REMARK  194  A    between atoms: _495  and  _497
REMARK  195  A    between atoms: _497  and  _498
REMARK  196  A    between atoms: _497  and  _500
REMARK  197  A    between atoms: _500  and  _501
REMARK  198  A    between atoms: _507  and  _509
REMARK  199  A    between atoms: _509  and  _510
REMARK  200  A    between atoms: _509  and  _512
REMARK  201  A    between atoms: _512  and  _513
REMARK  202  A    between atoms: _518  and  _520
REMARK  203  A    between atoms: _520  and  _521
REMARK  204  A    between atoms: _520  and  _523
REMARK  205  A    between atoms: _523  and  _524
REMARK  206  A    between atoms: _524  and  _525
REMARK  207  A    between atoms: _525  and  _526
REMARK  208  A    between atoms: _526  and  ZN_772
REMARK  209  A    between atoms: _528  and  _530
REMARK  210  A    between atoms: _530  and  _531
REMARK  211  A    between atoms: _534  and  _536
REMARK  212  A    between atoms: _536  and  _537
REMARK  213  A    between atoms: _539  and  _541
REMARK  214  A    between atoms: _541  and  _542
REMARK  215  A    between atoms: _541  and  _544
REMARK  216  A    between atoms: _544  and  _545
REMARK  217  A    between atoms: _548  and  _550
REMARK  218  A    between atoms: _550  and  _551
REMARK  219  A    between atoms: _554  and  _556
REMARK  220  A    between atoms: _556  and  _557
REMARK  221  A    between atoms: _556  and  _559
REMARK  222  A    between atoms: _559  and  _560
REMARK  223  A    between atoms: _563  and  _565
REMARK  224  A    between atoms: _565  and  _566
REMARK  225  A    between atoms: _565  and  _568
REMARK  226  A    between atoms: _568  and  _569
REMARK  227  A    between atoms: _569  and  _570
REMARK  228  A    between atoms: _570  and  _571
REMARK  229  A    between atoms: _571  and  _572
REMARK  230  A    between atoms: _576  and  _578
REMARK  231  A    between atoms: _578  and  _579
REMARK  232  A    between atoms: _578  and  _581
REMARK  233  A    between atoms: _581  and  _582
REMARK  234  A    between atoms: _588  and  _590
REMARK  235  A    between atoms: _590  and  _591
REMARK  236  A    between atoms: _590  and  _593
REMARK  237  A    between atoms: _593  and  _594
REMARK  238  A    between atoms: _600  and  _602
REMARK  239  A    between atoms: _602  and  _603
REMARK  240  A    between atoms: _602  and  _605
REMARK  241  A    between atoms: _605  and  _606
REMARK  242  A    between atoms: _608  and  _610
REMARK  243  A    between atoms: _610  and  _611
REMARK  244  A    between atoms: _610  and  _613
REMARK  245  A    between atoms: _616  and  _618
REMARK  246  A    between atoms: _618  and  _619
REMARK  247  A    between atoms: _618  and  _621
REMARK  248  A    between atoms: _621  and  _622
REMARK  249  A    between atoms: _622  and  _623
REMARK  250  A    between atoms: _623  and  _624
REMARK  251  A    between atoms: _624  and  _625
REMARK  252  A    between atoms: _629  and  _631
REMARK  253  A    between atoms: _631  and  _632
REMARK  254  A    between atoms: _631  and  _634
REMARK  255  A    between atoms: _634  and  _635
REMARK  256  A    between atoms: _641  and  _643
REMARK  257  A    between atoms: _643  and  _644
REMARK  258  A    between atoms: _643  and  _646
REMARK  259  A    between atoms: _646  and  _647
REMARK  260  A    between atoms: _652  and  _654
REMARK  261  A    between atoms: _654  and  _655
REMARK  262  A    between atoms: _654  and  _657
REMARK  263  A    between atoms: _657  and  _658
REMARK  264  A    between atoms: _660  and  _662
REMARK  265  A    between atoms: _662  and  _663
REMARK  266  A    between atoms: _662  and  _665
REMARK  267  A    between atoms: _665  and  _666
REMARK  268  A    between atoms: _668  and  _670
REMARK  269  A    between atoms: _670  and  _671
REMARK  270  A    between atoms: _670  and  _673
REMARK  271  A    between atoms: _677  and  _678
REMARK  272  A    between atoms: _683  and  _685
REMARK  273  A    between atoms: _685  and  _686
REMARK  274  A    between atoms: _685  and  _688
REMARK  275  A    between atoms: _688  and  _689
REMARK  276  A    between atoms: _694  and  _695
REMARK  277  A    between atoms: _697  and  _699
REMARK  278  A    between atoms: _699  and  _700
REMARK  279  A    between atoms: _699  and  _702
REMARK  280  A    between atoms: _702  and  _703
REMARK  281  A    between atoms: _703  and  _704
REMARK  282  A    between atoms: _704  and  _705
REMARK  283  A    between atoms: _714  and  _716
REMARK  284  A    between atoms: _716  and  _717
REMARK  285  A    between atoms: _716  and  _719
REMARK  286  A    between atoms: _719  and  _720
REMARK  287  A    between atoms: _725  and  _726
REMARK  288  A    between atoms: _728  and  _730
REMARK  289  A    between atoms: _730  and  _731
REMARK  290  A    between atoms: _730  and  _733
REMARK  291  A    between atoms: _733  and  _734
REMARK  292  A    between atoms: _740  and  _742
REMARK  293  A    between atoms: _742  and  _743
REMARK  294  A    between atoms: _742  and  _745
REMARK  295  A    between atoms: _745  and  _746
REMARK  296  A    between atoms: _748  and  _750
REMARK  297  A    between atoms: _750  and  _751
REMARK  298  A    between atoms: _750  and  _753
REMARK  299  A    between atoms: _753  and  _754
REMARK  300  A    between atoms: _760  and  _762
REMARK  301  A    between atoms: _762  and  _763
REMARK  302  A    between atoms: _762  and  _765
REMARK  303  A    between atoms: _765  and  _766
REMARK  304  A    between atoms: _766  and  _767
REMARK                            x       y       z     vdW  Elec       q    Type
REMARK                         _______ _______ _______ _____ _____    ______ ____
ROOT
ATOM      1  O   HOH     1       9.301  -4.227 -12.737  0.00  0.00    +0.000 OA
ENDROOT
TORSDOF 0
REMARK  Name = ../refined-set-2016/2xy9/2xy9_pocket.pdb
REMARK  304 active torsions:
REMARK  status: ('A' for Active; 'I' for Inactive)
REMARK    1  A    between atoms: _1  and  _3
REMARK    2  A    between atoms: _3  and  _4
REMARK    3  A    between atoms: _3  and  _6
REMARK    4  A    between atoms: _6  and  _7
REMARK    5  A    between atoms: _12  and  _14
REMARK    6  A    between atoms: _14  and  _15
REMARK    7  A    between atoms: _14  and  _17
REMARK    8  A    between atoms: _17  and  _18
REMARK    9  A    between atoms: _23  and  _25
REMARK   10  A    between atoms: _25  and  _26
REMARK   11  A    between atoms: _25  and  _28
REMARK   12  A    between atoms: _28  and  _29
REMARK   13  A    between atoms: _29  and  _30
REMARK   14  A    between atoms: _33  and  _35
REMARK   15  A    between atoms: _35  and  _36
REMARK   16  A    between atoms: _35  and  _38
REMARK   17  A    between atoms: _38  and  _39
REMARK   18  A    between atoms: _44  and  _45
REMARK   19  A    between atoms: _47  and  _49
REMARK   20  A    between atoms: _49  and  _50
REMARK   21  A    between atoms: _49  and  _52
REMARK   22  A    between atoms: _52  and  _53
REMARK   23  A    between atoms: _56  and  _58
REMARK   24  A    between atoms: _58  and  _59
REMARK   25  A    between atoms: _61  and  _63
REMARK   26  A    between atoms: _63  and  _64
REMARK   27  A    between atoms: _63  and  _66
REMARK   28  A    between atoms: _66  and  _67
REMARK   29  A    between atoms: _72  and  _74
REMARK   30  A    between atoms: _74  and  _75
REMARK   31  A    between atoms: _74  and  _77
REMARK   32  A    between atoms: _77  and  _78
REMARK   33  A    between atoms: _88  and  _90
REMARK   34  A    between atoms: _90  and  _91
REMARK   35  A    between atoms: _90  and  _93
REMARK   36  A    between atoms: _93  and  _94
REMARK   37  A    between atoms: _94  and  _95
REMARK   38  A    between atoms: _100  and  _102
REMARK   39  A    between atoms: _102  and  _103
REMARK   40  A    between atoms: _102  and  _105
REMARK   41  A    between atoms: _105  and  _106
REMARK   42  A    between atoms: _109  and  _111
REMARK   43  A    between atoms: _111  and  _112
REMARK   44  A    between atoms: _111  and  _114
REMARK   45  A    between atoms: _114  and  _115
REMARK   46  A    between atoms: _125  and  _127
REMARK   47  A    between atoms: _127  and  _128
REMARK   48  A    between atoms: _127  and  _130
REMARK   49  A    between atoms: _130  and  _131
REMARK   50  A    between atoms: _133  and  _135
REMARK   51  A    between atoms: _135  and  _136
REMARK   52  A    between atoms: _135  and  _138
REMARK   53  A    between atoms: _138  and  _139
REMARK   54  A    between atoms: _144  and  _146
REMARK   55  A    between atoms: _146  and  _147
REMARK   56  A    between atoms: _146  and  _149
REMARK   57  A    between atoms: _152  and  _154
REMARK   58  A    between atoms: _154  and  _155
REMARK   59  A    between atoms: _154  and  _157
REMARK   60  A    between atoms: _159  and  _161
REMARK   61  A    between atoms: _161  and  _162
REMARK   62  A    between atoms: _161  and  _164
REMARK   63  A    between atoms: _164  and  _165
REMARK   64  A    between atoms: _170  and  _172
REMARK   65  A    between atoms: _172  and  _173
REMARK   66  A    between atoms: _176  and  _178
REMARK   67  A    between atoms: _178  and  _179
REMARK   68  A    between atoms: _178  and  _181
REMARK   69  A    between atoms: _181  and  _182
REMARK   70  A    between atoms: _184  and  _186
REMARK   71  A    between atoms: _186  and  _187
REMARK   72  A    between atoms: _190  and  _192
REMARK   73  A    between atoms: _192  and  _193
REMARK   74  A    between atoms: _192  and  _195
REMARK   75  A    between atoms: _195  and  _196
REMARK   76  A    between atoms: _206  and  _208
REMARK   77  A    between atoms: _208  and  _209
REMARK   78  A    between atoms: _208  and  _211
REMARK   79  A    between atoms: _211  and  _212
REMARK   80  A    between atoms: _215  and  _217
REMARK   81  A    between atoms: _217  and  _218
REMARK   82  A    between atoms: _217  and  _220
REMARK   83  A    between atoms: _220  and  _221
REMARK   84  A    between atoms: _226  and  _227
REMARK   85  A    between atoms: _229  and  _231
REMARK   86  A    between atoms: _231  and  _232
REMARK   87  A    between atoms: _231  and  _234
REMARK   88  A    between atoms: _234  and  _235
REMARK   89  A    between atoms: _235  and  _236
REMARK   90  A    between atoms: _236  and  _237
REMARK   91  A    between atoms: _246  and  _248
REMARK   92  A    between atoms: _248  and  _249
REMARK   93  A    between atoms: _248  and  _251
REMARK   94  A    between atoms: _251  and  _252
REMARK   95  A    between atoms: _255  and  _257
REMARK   96  A    between atoms: _257  and  _258
REMARK   97  A    between atoms: _257  and  _260
REMARK   98  A    between atoms: _260  and  _261
REMARK   99  A    between atoms: _261  and  _262
REMARK  100  A    between atoms: _262  and  _263
REMARK  101  A    between atoms: _263  and  _264
REMARK  102  A    between atoms: _268  and  _270
REMARK  103  A    between atoms: _270  and  _271
REMARK  104  A    between atoms: _270  and  _273
REMARK  105  A    between atoms: _273  and  _274
REMARK  106  A    between atoms: _274  and  _275
REMARK  107  A    between atoms: _280  and  _282
REMARK  108  A    between atoms: _282  and  _283
REMARK  109  A    between atoms: _282  and  _285
REMARK  110  A    between atoms: _285  and  _286
REMARK  111  A    between atoms: _289  and  _291
REMARK  112  A    between atoms: _291  and  _292
REMARK  113  A    between atoms: _291  and  _294
REMARK  114  A    between atoms: _294  and  _295
REMARK  115  A    between atoms: _295  and  _296
REMARK  116  A    between atoms: _299  and  _301
REMARK  117  A    between atoms: _301  and  _302
REMARK  118  A    between atoms: _301  and  _304
REMARK  119  A    between atoms: _304  and  _305
REMARK  120  A    between atoms: _308  and  _310
REMARK  121  A    between atoms: _310  and  _311
REMARK  122  A    between atoms: _310  and  _313
REMARK  123  A    between atoms: _313  and  _314
REMARK  124  A    between atoms: _317  and  _319
REMARK  125  A    between atoms: _319  and  _320
REMARK  126  A    between atoms: _319  and  _322
REMARK  127  A    between atoms: _325  and  _327
REMARK  128  A    between atoms: _327  and  _328
REMARK  129  A    between atoms: _327  and  _330
REMARK  130  A    between atoms: _333  and  _335
REMARK  131  A    between atoms: _335  and  _336
REMARK  132  A    between atoms: _339  and  _341
REMARK  133  A    between atoms: _341  and  _342
REMARK  134  A    between atoms: _341  and  _344
REMARK  135  A    between atoms: _344  and  _345
REMARK  136  A    between atoms: _350  and  _352
REMARK  137  A    between atoms: _352  and  _353
REMARK  138  A    between atoms: _352  and  _355
REMARK  139  A    between atoms: _355  and  _356
REMARK  140  A    between atoms: _360  and  ZN_772
REMARK  141  A    between atoms: _361  and  _363
REMARK  142  A    between atoms: _363  and  _364
REMARK  143  A    between atoms: _363  and  _366
REMARK  144  A    between atoms: _366  and  _367
REMARK  145  A    between atoms: _367  and  _368
REMARK  146  A    between atoms: _371  and  _373
REMARK  147  A    between atoms: _373  and  _374
REMARK  148  A    between atoms: _373  and  _376
REMARK  149  A    between atoms: _376  and  _377
REMARK  150  A    between atoms: _377  and  _378
REMARK  151  A    between atoms: _380  and  _382
REMARK  152  A    between atoms: _382  and  _383
REMARK  153  A    between atoms: _382  and  _385
REMARK  154  A    between atoms: _385  and  _386
REMARK  155  A    between atoms: _390  and  ZN_772
REMARK  156  A    between atoms: _391  and  _393
REMARK  157  A    between atoms: _393  and  _394
REMARK  158  A    between atoms: _393  and  _396
REMARK  159  A    between atoms: _396  and  _397
REMARK  160  A    between atoms: _400  and  _402
REMARK  161  A    between atoms: _402  and  _403
REMARK  162  A    between atoms: _402  and  _405
REMARK  163  A    between atoms: _405  and  _406
REMARK  164  A    between atoms: _411  and  _412
REMARK  165  A    between atoms: _414  and  _416
REMARK  166  A    between atoms: _416  and  _417
REMARK  167  A    between atoms: _416  and  _419
REMARK  168  A    between atoms: _419  and  _420
REMARK  169  A    between atoms: _426  and  _428
REMARK  170  A    between atoms: _428  and  _429
REMARK  171  A    between atoms: _428  and  _431
REMARK  172  A    between atoms: _431  and  _432
REMARK  173  A    between atoms: _437  and  _438
REMARK  174  A    between atoms: _440  and  _442
REMARK  175  A    between atoms: _442  and  _443
REMARK  176  A    between atoms: _442  and  _445
REMARK  177  A    between atoms: _445  and  _446
REMARK  178  A    between atoms: _446  and  _447
REMARK  179  A    between atoms: _447  and  _448
REMARK  180  A    between atoms: _457  and  _459
REMARK  181  A    between atoms: _459  and  _460
REMARK  182  A    between atoms: _459  and  _462
REMARK  183  A    between atoms: _462  and  _463
REMARK  184  A    between atoms: _463  and  _464
REMARK  185  A    between atoms: _467  and  _469
REMARK  186  A    between atoms: _469  and  _470
REMARK  187  A    between atoms: _472  and  _474
REMARK  188  A    between atoms: _474  and  _475
REMARK  189  A    between atoms: _474  and  _477
REMARK  190  A    between atoms: _477  and  _478
REMARK  191  A    between atoms: _484  and  _485
REMARK  192  A    between atoms: _490  and  _492
REMARK  193  A    between atoms: _492  and  _493
REMARK  194  A    between atoms: _495  and  _497
REMARK  195  A    between atoms: _497  and  _498
REMARK  196  A    between atoms: _497  and  _500
REMARK  197  A    between atoms: _500  and  _501
REMARK  198  A    between atoms: _507  and  _509
REMARK  199  A    between atoms: _509  and  _510
REMARK  200  A    between atoms: _509  and  _512
REMARK  201  A    between atoms: _512  and  _513
REMARK  202  A    between atoms: _518  and  _520
REMARK  203  A    between atoms: _520  and  _521
REMARK  204  A    between atoms: _520  and  _523
REMARK  205  A    between atoms: _523  and  _524
REMARK  206  A    between atoms: _524  and  _525
REMARK  207  A    between atoms: _525  and  _526
REMARK  208  A    between atoms: _526  and  ZN_772
REMARK  209  A    between atoms: _528  and  _530
REMARK  210  A    between atoms: _530  and  _531
REMARK  211  A    between atoms: _534  and  _536
REMARK  212  A    between atoms: _536  and  _537
REMARK  213  A    between atoms: _539  and  _541
REMARK  214  A    between atoms: _541  and  _542
REMARK  215  A    between atoms: _541  and  _544
REMARK  216  A    between atoms: _544  and  _545
REMARK  217  A    between atoms: _548  and  _550
REMARK  218  A    between atoms: _550  and  _551
REMARK  219  A    between atoms: _554  and  _556
REMARK  220  A    between atoms: _556  and  _557
REMARK  221  A    between atoms: _556  and  _559
REMARK  222  A    between atoms: _559  and  _560
REMARK  223  A    between atoms: _563  and  _565
REMARK  224  A    between atoms: _565  and  _566
REMARK  225  A    between atoms: _565  and  _568
REMARK  226  A    between atoms: _568  and  _569
REMARK  227  A    between atoms: _569  and  _570
REMARK  228  A    between atoms: _570  and  _571
REMARK  229  A    between atoms: _571  and  _572
REMARK  230  A    between atoms: _576  and  _578
REMARK  231  A    between atoms: _578  and  _579
REMARK  232  A    between atoms: _578  and  _581
REMARK  233  A    between atoms: _581  and  _582
REMARK  234  A    between atoms: _588  and  _590
REMARK  235  A    between atoms: _590  and  _591
REMARK  236  A    between atoms: _590  and  _593
REMARK  237  A    between atoms: _593  and  _594
REMARK  238  A    between atoms: _600  and  _602
REMARK  239  A    between atoms: _602  and  _603
REMARK  240  A    between atoms: _602  and  _605
REMARK  241  A    between atoms: _605  and  _606
REMARK  242  A    between atoms: _608  and  _610
REMARK  243  A    between atoms: _610  and  _611
REMARK  244  A    between atoms: _610  and  _613
REMARK  245  A    between atoms: _616  and  _618
REMARK  246  A    between atoms: _618  and  _619
REMARK  247  A    between atoms: _618  and  _621
REMARK  248  A    between atoms: _621  and  _622
REMARK  249  A    between atoms: _622  and  _623
REMARK  250  A    between atoms: _623  and  _624
REMARK  251  A    between atoms: _624  and  _625
REMARK  252  A    between atoms: _629  and  _631
REMARK  253  A    between atoms: _631  and  _632
REMARK  254  A    between atoms: _631  and  _634
REMARK  255  A    between atoms: _634  and  _635
REMARK  256  A    between atoms: _641  and  _643
REMARK  257  A    between atoms: _643  and  _644
REMARK  258  A    between atoms: _643  and  _646
REMARK  259  A    between atoms: _646  and  _647
REMARK  260  A    between atoms: _652  and  _654
REMARK  261  A    between atoms: _654  and  _655
REMARK  262  A    between atoms: _654  and  _657
REMARK  263  A    between atoms: _657  and  _658
REMARK  264  A    between atoms: _660  and  _662
REMARK  265  A    between atoms: _662  and  _663
REMARK  266  A    between atoms: _662  and  _665
REMARK  267  A    between atoms: _665  and  _666
REMARK  268  A    between atoms: _668  and  _670
REMARK  269  A    between atoms: _670  and  _671
REMARK  270  A    between atoms: _670  and  _673
REMARK  271  A    between atoms: _677  and  _678
REMARK  272  A    between atoms: _683  and  _685
REMARK  273  A    between atoms: _685  and  _686
REMARK  274  A    between atoms: _685  and  _688
REMARK  275  A    between atoms: _688  and  _689
REMARK  276  A    between atoms: _694  and  _695
REMARK  277  A    between atoms: _697  and  _699
REMARK  278  A    between atoms: _699  and  _700
REMARK  279  A    between atoms: _699  and  _702
REMARK  280  A    between atoms: _702  and  _703
REMARK  281  A    between atoms: _703  and  _704
REMARK  282  A    between atoms: _704  and  _705
REMARK  283  A    between atoms: _714  and  _716
REMARK  284  A    between atoms: _716  and  _717
REMARK  285  A    between atoms: _716  and  _719
REMARK  286  A    between atoms: _719  and  _720
REMARK  287  A    between atoms: _725  and  _726
REMARK  288  A    between atoms: _728  and  _730
REMARK  289  A    between atoms: _730  and  _731
REMARK  290  A    between atoms: _730  and  _733
REMARK  291  A    between atoms: _733  and  _734
REMARK  292  A    between atoms: _740  and  _742
REMARK  293  A    between atoms: _742  and  _743
REMARK  294  A    between atoms: _742  and  _745
REMARK  295  A    between atoms: _745  and  _746
REMARK  296  A    between atoms: _748  and  _750
REMARK  297  A    between atoms: _750  and  _751
REMARK  298  A    between atoms: _750  and  _753
REMARK  299  A    between atoms: _753  and  _754
REMARK  300  A    between atoms: _760  and  _762
REMARK  301  A    between atoms: _762  and  _763
REMARK  302  A    between atoms: _762  and  _765
REMARK  303  A    between atoms: _765  and  _766
REMARK  304  A    between atoms: _766  and  _767
REMARK                            x       y       z     vdW  Elec       q    Type
REMARK                         _______ _______ _______ _____ _____    ______ ____
ROOT
ATOM      1  O   HOH     1       8.602  -5.231 -10.243  0.00  0.00    +0.000 OA
ENDROOT
TORSDOF 0
REMARK  Name = ../refined-set-2016/2xy9/2xy9_pocket.pdb
REMARK  304 active torsions:
REMARK  status: ('A' for Active; 'I' for Inactive)
REMARK    1  A    between atoms: _1  and  _3
REMARK    2  A    between atoms: _3  and  _4
REMARK    3  A    between atoms: _3  and  _6
REMARK    4  A    between atoms: _6  and  _7
REMARK    5  A    between atoms: _12  and  _14
REMARK    6  A    between atoms: _14  and  _15
REMARK    7  A    between atoms: _14  and  _17
REMARK    8  A    between atoms: _17  and  _18
REMARK    9  A    between atoms: _23  and  _25
REMARK   10  A    between atoms: _25  and  _26
REMARK   11  A    between atoms: _25  and  _28
REMARK   12  A    between atoms: _28  and  _29
REMARK   13  A    between atoms: _29  and  _30
REMARK   14  A    between atoms: _33  and  _35
REMARK   15  A    between atoms: _35  and  _36
REMARK   16  A    between atoms: _35  and  _38
REMARK   17  A    between atoms: _38  and  _39
REMARK   18  A    between atoms: _44  and  _45
REMARK   19  A    between atoms: _47  and  _49
REMARK   20  A    between atoms: _49  and  _50
REMARK   21  A    between atoms: _49  and  _52
REMARK   22  A    between atoms: _52  and  _53
REMARK   23  A    between atoms: _56  and  _58
REMARK   24  A    between atoms: _58  and  _59
REMARK   25  A    between atoms: _61  and  _63
REMARK   26  A    between atoms: _63  and  _64
REMARK   27  A    between atoms: _63  and  _66
REMARK   28  A    between atoms: _66  and  _67
REMARK   29  A    between atoms: _72  and  _74
REMARK   30  A    between atoms: _74  and  _75
REMARK   31  A    between atoms: _74  and  _77
REMARK   32  A    between atoms: _77  and  _78
REMARK   33  A    between atoms: _88  and  _90
REMARK   34  A    between atoms: _90  and  _91
REMARK   35  A    between atoms: _90  and  _93
REMARK   36  A    between atoms: _93  and  _94
REMARK   37  A    between atoms: _94  and  _95
REMARK   38  A    between atoms: _100  and  _102
REMARK   39  A    between atoms: _102  and  _103
REMARK   40  A    between atoms: _102  and  _105
REMARK   41  A    between atoms: _105  and  _106
REMARK   42  A    between atoms: _109  and  _111
REMARK   43  A    between atoms: _111  and  _112
REMARK   44  A    between atoms: _111  and  _114
REMARK   45  A    between atoms: _114  and  _115
REMARK   46  A    between atoms: _125  and  _127
REMARK   47  A    between atoms: _127  and  _128
REMARK   48  A    between atoms: _127  and  _130
REMARK   49  A    between atoms: _130  and  _131
REMARK   50  A    between atoms: _133  and  _135
REMARK   51  A    between atoms: _135  and  _136
REMARK   52  A    between atoms: _135  and  _138
REMARK   53  A    between atoms: _138  and  _139
REMARK   54  A    between atoms: _144  and  _146
REMARK   55  A    between atoms: _146  and  _147
REMARK   56  A    between atoms: _146  and  _149
REMARK   57  A    between atoms: _152  and  _154
REMARK   58  A    between atoms: _154  and  _155
REMARK   59  A    between atoms: _154  and  _157
REMARK   60  A    between atoms: _159  and  _161
REMARK   61  A    between atoms: _161  and  _162
REMARK   62  A    between atoms: _161  and  _164
REMARK   63  A    between atoms: _164  and  _165
REMARK   64  A    between atoms: _170  and  _172
REMARK   65  A    between atoms: _172  and  _173
REMARK   66  A    between atoms: _176  and  _178
REMARK   67  A    between atoms: _178  and  _179
REMARK   68  A    between atoms: _178  and  _181
REMARK   69  A    between atoms: _181  and  _182
REMARK   70  A    between atoms: _184  and  _186
REMARK   71  A    between atoms: _186  and  _187
REMARK   72  A    between atoms: _190  and  _192
REMARK   73  A    between atoms: _192  and  _193
REMARK   74  A    between atoms: _192  and  _195
REMARK   75  A    between atoms: _195  and  _196
REMARK   76  A    between atoms: _206  and  _208
REMARK   77  A    between atoms: _208  and  _209
REMARK   78  A    between atoms: _208  and  _211
REMARK   79  A    between atoms: _211  and  _212
REMARK   80  A    between atoms: _215  and  _217
REMARK   81  A    between atoms: _217  and  _218
REMARK   82  A    between atoms: _217  and  _220
REMARK   83  A    between atoms: _220  and  _221
REMARK   84  A    between atoms: _226  and  _227
REMARK   85  A    between atoms: _229  and  _231
REMARK   86  A    between atoms: _231  and  _232
REMARK   87  A    between atoms: _231  and  _234
REMARK   88  A    between atoms: _234  and  _235
REMARK   89  A    between atoms: _235  and  _236
REMARK   90  A    between atoms: _236  and  _237
REMARK   91  A    between atoms: _246  and  _248
REMARK   92  A    between atoms: _248  and  _249
REMARK   93  A    between atoms: _248  and  _251
REMARK   94  A    between atoms: _251  and  _252
REMARK   95  A    between atoms: _255  and  _257
REMARK   96  A    between atoms: _257  and  _258
REMARK   97  A    between atoms: _257  and  _260
REMARK   98  A    between atoms: _260  and  _261
REMARK   99  A    between atoms: _261  and  _262
REMARK  100  A    between atoms: _262  and  _263
REMARK  101  A    between atoms: _263  and  _264
REMARK  102  A    between atoms: _268  and  _270
REMARK  103  A    between atoms: _270  and  _271
REMARK  104  A    between atoms: _270  and  _273
REMARK  105  A    between atoms: _273  and  _274
REMARK  106  A    between atoms: _274  and  _275
REMARK  107  A    between atoms: _280  and  _282
REMARK  108  A    between atoms: _282  and  _283
REMARK  109  A    between atoms: _282  and  _285
REMARK  110  A    between atoms: _285  and  _286
REMARK  111  A    between atoms: _289  and  _291
REMARK  112  A    between atoms: _291  and  _292
REMARK  113  A    between atoms: _291  and  _294
REMARK  114  A    between atoms: _294  and  _295
REMARK  115  A    between atoms: _295  and  _296
REMARK  116  A    between atoms: _299  and  _301
REMARK  117  A    between atoms: _301  and  _302
REMARK  118  A    between atoms: _301  and  _304
REMARK  119  A    between atoms: _304  and  _305
REMARK  120  A    between atoms: _308  and  _310
REMARK  121  A    between atoms: _310  and  _311
REMARK  122  A    between atoms: _310  and  _313
REMARK  123  A    between atoms: _313  and  _314
REMARK  124  A    between atoms: _317  and  _319
REMARK  125  A    between atoms: _319  and  _320
REMARK  126  A    between atoms: _319  and  _322
REMARK  127  A    between atoms: _325  and  _327
REMARK  128  A    between atoms: _327  and  _328
REMARK  129  A    between atoms: _327  and  _330
REMARK  130  A    between atoms: _333  and  _335
REMARK  131  A    between atoms: _335  and  _336
REMARK  132  A    between atoms: _339  and  _341
REMARK  133  A    between atoms: _341  and  _342
REMARK  134  A    between atoms: _341  and  _344
REMARK  135  A    between atoms: _344  and  _345
REMARK  136  A    between atoms: _350  and  _352
REMARK  137  A    between atoms: _352  and  _353
REMARK  138  A    between atoms: _352  and  _355
REMARK  139  A    between atoms: _355  and  _356
REMARK  140  A    between atoms: _360  and  ZN_772
REMARK  141  A    between atoms: _361  and  _363
REMARK  142  A    between atoms: _363  and  _364
REMARK  143  A    between atoms: _363  and  _366
REMARK  144  A    between atoms: _366  and  _367
REMARK  145  A    between atoms: _367  and  _368
REMARK  146  A    between atoms: _371  and  _373
REMARK  147  A    between atoms: _373  and  _374
REMARK  148  A    between atoms: _373  and  _376
REMARK  149  A    between atoms: _376  and  _377
REMARK  150  A    between atoms: _377  and  _378
REMARK  151  A    between atoms: _380  and  _382
REMARK  152  A    between atoms: _382  and  _383
REMARK  153  A    between atoms: _382  and  _385
REMARK  154  A    between atoms: _385  and  _386
REMARK  155  A    between atoms: _390  and  ZN_772
REMARK  156  A    between atoms: _391  and  _393
REMARK  157  A    between atoms: _393  and  _394
REMARK  158  A    between atoms: _393  and  _396
REMARK  159  A    between atoms: _396  and  _397
REMARK  160  A    between atoms: _400  and  _402
REMARK  161  A    between atoms: _402  and  _403
REMARK  162  A    between atoms: _402  and  _405
REMARK  163  A    between atoms: _405  and  _406
REMARK  164  A    between atoms: _411  and  _412
REMARK  165  A    between atoms: _414  and  _416
REMARK  166  A    between atoms: _416  and  _417
REMARK  167  A    between atoms: _416  and  _419
REMARK  168  A    between atoms: _419  and  _420
REMARK  169  A    between atoms: _426  and  _428
REMARK  170  A    between atoms: _428  and  _429
REMARK  171  A    between atoms: _428  and  _431
REMARK  172  A    between atoms: _431  and  _432
REMARK  173  A    between atoms: _437  and  _438
REMARK  174  A    between atoms: _440  and  _442
REMARK  175  A    between atoms: _442  and  _443
REMARK  176  A    between atoms: _442  and  _445
REMARK  177  A    between atoms: _445  and  _446
REMARK  178  A    between atoms: _446  and  _447
REMARK  179  A    between atoms: _447  and  _448
REMARK  180  A    between atoms: _457  and  _459
REMARK  181  A    between atoms: _459  and  _460
REMARK  182  A    between atoms: _459  and  _462
REMARK  183  A    between atoms: _462  and  _463
REMARK  184  A    between atoms: _463  and  _464
REMARK  185  A    between atoms: _467  and  _469
REMARK  186  A    between atoms: _469  and  _470
REMARK  187  A    between atoms: _472  and  _474
REMARK  188  A    between atoms: _474  and  _475
REMARK  189  A    between atoms: _474  and  _477
REMARK  190  A    between atoms: _477  and  _478
REMARK  191  A    between atoms: _484  and  _485
REMARK  192  A    between atoms: _490  and  _492
REMARK  193  A    between atoms: _492  and  _493
REMARK  194  A    between atoms: _495  and  _497
REMARK  195  A    between atoms: _497  and  _498
REMARK  196  A    between atoms: _497  and  _500
REMARK  197  A    between atoms: _500  and  _501
REMARK  198  A    between atoms: _507  and  _509
REMARK  199  A    between atoms: _509  and  _510
REMARK  200  A    between atoms: _509  and  _512
REMARK  201  A    between atoms: _512  and  _513
REMARK  202  A    between atoms: _518  and  _520
REMARK  203  A    between atoms: _520  and  _521
REMARK  204  A    between atoms: _520  and  _523
REMARK  205  A    between atoms: _523  and  _524
REMARK  206  A    between atoms: _524  and  _525
REMARK  207  A    between atoms: _525  and  _526
REMARK  208  A    between atoms: _526  and  ZN_772
REMARK  209  A    between atoms: _528  and  _530
REMARK  210  A    between atoms: _530  and  _531
REMARK  211  A    between atoms: _534  and  _536
REMARK  212  A    between atoms: _536  and  _537
REMARK  213  A    between atoms: _539  and  _541
REMARK  214  A    between atoms: _541  and  _542
REMARK  215  A    between atoms: _541  and  _544
REMARK  216  A    between atoms: _544  and  _545
REMARK  217  A    between atoms: _548  and  _550
REMARK  218  A    between atoms: _550  and  _551
REMARK  219  A    between atoms: _554  and  _556
REMARK  220  A    between atoms: _556  and  _557
REMARK  221  A    between atoms: _556  and  _559
REMARK  222  A    between atoms: _559  and  _560
REMARK  223  A    between atoms: _563  and  _565
REMARK  224  A    between atoms: _565  and  _566
REMARK  225  A    between atoms: _565  and  _568
REMARK  226  A    between atoms: _568  and  _569
REMARK  227  A    between atoms: _569  and  _570
REMARK  228  A    between atoms: _570  and  _571
REMARK  229  A    between atoms: _571  and  _572
REMARK  230  A    between atoms: _576  and  _578
REMARK  231  A    between atoms: _578  and  _579
REMARK  232  A    between atoms: _578  and  _581
REMARK  233  A    between atoms: _581  and  _582
REMARK  234  A    between atoms: _588  and  _590
REMARK  235  A    between atoms: _590  and  _591
REMARK  236  A    between atoms: _590  and  _593
REMARK  237  A    between atoms: _593  and  _594
REMARK  238  A    between atoms: _600  and  _602
REMARK  239  A    between atoms: _602  and  _603
REMARK  240  A    between atoms: _602  and  _605
REMARK  241  A    between atoms: _605  and  _606
REMARK  242  A    between atoms: _608  and  _610
REMARK  243  A    between atoms: _610  and  _611
REMARK  244  A    between atoms: _610  and  _613
REMARK  245  A    between atoms: _616  and  _618
REMARK  246  A    between atoms: _618  and  _619
REMARK  247  A    between atoms: _618  and  _621
REMARK  248  A    between atoms: _621  and  _622
REMARK  249  A    between atoms: _622  and  _623
REMARK  250  A    between atoms: _623  and  _624
REMARK  251  A    between atoms: _624  and  _625
REMARK  252  A    between atoms: _629  and  _631
REMARK  253  A    between atoms: _631  and  _632
REMARK  254  A    between atoms: _631  and  _634
REMARK  255  A    between atoms: _634  and  _635
REMARK  256  A    between atoms: _641  and  _643
REMARK  257  A    between atoms: _643  and  _644
REMARK  258  A    between atoms: _643  and  _646
REMARK  259  A    between atoms: _646  and  _647
REMARK  260  A    between atoms: _652  and  _654
REMARK  261  A    between atoms: _654  and  _655
REMARK  262  A    between atoms: _654  and  _657
REMARK  263  A    between atoms: _657  and  _658
REMARK  264  A    between atoms: _660  and  _662
REMARK  265  A    between atoms: _662  and  _663
REMARK  266  A    between atoms: _662  and  _665
REMARK  267  A    between atoms: _665  and  _666
REMARK  268  A    between atoms: _668  and  _670
REMARK  269  A    between atoms: _670  and  _671
REMARK  270  A    between atoms: _670  and  _673
REMARK  271  A    between atoms: _677  and  _678
REMARK  272  A    between atoms: _683  and  _685
REMARK  273  A    between atoms: _685  and  _686
REMARK  274  A    between atoms: _685  and  _688
REMARK  275  A    between atoms: _688  and  _689
REMARK  276  A    between atoms: _694  and  _695
REMARK  277  A    between atoms: _697  and  _699
REMARK  278  A    between atoms: _699  and  _700
REMARK  279  A    between atoms: _699  and  _702
REMARK  280  A    between atoms: _702  and  _703
REMARK  281  A    between atoms: _703  and  _704
REMARK  282  A    between atoms: _704  and  _705
REMARK  283  A    between atoms: _714  and  _716
REMARK  284  A    between atoms: _716  and  _717
REMARK  285  A    between atoms: _716  and  _719
REMARK  286  A    between atoms: _719  and  _720
REMARK  287  A    between atoms: _725  and  _726
REMARK  288  A    between atoms: _728  and  _730
REMARK  289  A    between atoms: _730  and  _731
REMARK  290  A    between atoms: _730  and  _733
REMARK  291  A    between atoms: _733  and  _734
REMARK  292  A    between atoms: _740  and  _742
REMARK  293  A    between atoms: _742  and  _743
REMARK  294  A    between atoms: _742  and  _745
REMARK  295  A    between atoms: _745  and  _746
REMARK  296  A    between atoms: _748  and  _750
REMARK  297  A    between atoms: _750  and  _751
REMARK  298  A    between atoms: _750  and  _753
REMARK  299  A    between atoms: _753  and  _754
REMARK  300  A    between atoms: _760  and  _762
REMARK  301  A    between atoms: _762  and  _763
REMARK  302  A    between atoms: _762  and  _765
REMARK  303  A    between atoms: _765  and  _766
REMARK  304  A    between atoms: _766  and  _767
REMARK                            x       y       z     vdW  Elec       q    Type
REMARK                         _______ _______ _______ _____ _____    ______ ____
ROOT
ATOM      1  O   HOH     1      10.794  -2.291 -11.370  0.00  0.00    +0.000 OA
ENDROOT
TORSDOF 0
REMARK  Name = ../refined-set-2016/2xy9/2xy9_pocket.pdb
REMARK  304 active torsions:
REMARK  status: ('A' for Active; 'I' for Inactive)
REMARK    1  A    between atoms: _1  and  _3
REMARK    2  A    between atoms: _3  and  _4
REMARK    3  A    between atoms: _3  and  _6
REMARK    4  A    between atoms: _6  and  _7
REMARK    5  A    between atoms: _12  and  _14
REMARK    6  A    between atoms: _14  and  _15
REMARK    7  A    between atoms: _14  and  _17
REMARK    8  A    between atoms: _17  and  _18
REMARK    9  A    between atoms: _23  and  _25
REMARK   10  A    between atoms: _25  and  _26
REMARK   11  A    between atoms: _25  and  _28
REMARK   12  A    between atoms: _28  and  _29
REMARK   13  A    between atoms: _29  and  _30
REMARK   14  A    between atoms: _33  and  _35
REMARK   15  A    between atoms: _35  and  _36
REMARK   16  A    between atoms: _35  and  _38
REMARK   17  A    between atoms: _38  and  _39
REMARK   18  A    between atoms: _44  and  _45
REMARK   19  A    between atoms: _47  and  _49
REMARK   20  A    between atoms: _49  and  _50
REMARK   21  A    between atoms: _49  and  _52
REMARK   22  A    between atoms: _52  and  _53
REMARK   23  A    between atoms: _56  and  _58
REMARK   24  A    between atoms: _58  and  _59
REMARK   25  A    between atoms: _61  and  _63
REMARK   26  A    between atoms: _63  and  _64
REMARK   27  A    between atoms: _63  and  _66
REMARK   28  A    between atoms: _66  and  _67
REMARK   29  A    between atoms: _72  and  _74
REMARK   30  A    between atoms: _74  and  _75
REMARK   31  A    between atoms: _74  and  _77
REMARK   32  A    between atoms: _77  and  _78
REMARK   33  A    between atoms: _88  and  _90
REMARK   34  A    between atoms: _90  and  _91
REMARK   35  A    between atoms: _90  and  _93
REMARK   36  A    between atoms: _93  and  _94
REMARK   37  A    between atoms: _94  and  _95
REMARK   38  A    between atoms: _100  and  _102
REMARK   39  A    between atoms: _102  and  _103
REMARK   40  A    between atoms: _102  and  _105
REMARK   41  A    between atoms: _105  and  _106
REMARK   42  A    between atoms: _109  and  _111
REMARK   43  A    between atoms: _111  and  _112
REMARK   44  A    between atoms: _111  and  _114
REMARK   45  A    between atoms: _114  and  _115
REMARK   46  A    between atoms: _125  and  _127
REMARK   47  A    between atoms: _127  and  _128
REMARK   48  A    between atoms: _127  and  _130
REMARK   49  A    between atoms: _130  and  _131
REMARK   50  A    between atoms: _133  and  _135
REMARK   51  A    between atoms: _135  and  _136
REMARK   52  A    between atoms: _135  and  _138
REMARK   53  A    between atoms: _138  and  _139
REMARK   54  A    between atoms: _144  and  _146
REMARK   55  A    between atoms: _146  and  _147
REMARK   56  A    between atoms: _146  and  _149
REMARK   57  A    between atoms: _152  and  _154
REMARK   58  A    between atoms: _154  and  _155
REMARK   59  A    between atoms: _154  and  _157
REMARK   60  A    between atoms: _159  and  _161
REMARK   61  A    between atoms: _161  and  _162
REMARK   62  A    between atoms: _161  and  _164
REMARK   63  A    between atoms: _164  and  _165
REMARK   64  A    between atoms: _170  and  _172
REMARK   65  A    between atoms: _172  and  _173
REMARK   66  A    between atoms: _176  and  _178
REMARK   67  A    between atoms: _178  and  _179
REMARK   68  A    between atoms: _178  and  _181
REMARK   69  A    between atoms: _181  and  _182
REMARK   70  A    between atoms: _184  and  _186
REMARK   71  A    between atoms: _186  and  _187
REMARK   72  A    between atoms: _190  and  _192
REMARK   73  A    between atoms: _192  and  _193
REMARK   74  A    between atoms: _192  and  _195
REMARK   75  A    between atoms: _195  and  _196
REMARK   76  A    between atoms: _206  and  _208
REMARK   77  A    between atoms: _208  and  _209
REMARK   78  A    between atoms: _208  and  _211
REMARK   79  A    between atoms: _211  and  _212
REMARK   80  A    between atoms: _215  and  _217
REMARK   81  A    between atoms: _217  and  _218
REMARK   82  A    between atoms: _217  and  _220
REMARK   83  A    between atoms: _220  and  _221
REMARK   84  A    between atoms: _226  and  _227
REMARK   85  A    between atoms: _229  and  _231
REMARK   86  A    between atoms: _231  and  _232
REMARK   87  A    between atoms: _231  and  _234
REMARK   88  A    between atoms: _234  and  _235
REMARK   89  A    between atoms: _235  and  _236
REMARK   90  A    between atoms: _236  and  _237
REMARK   91  A    between atoms: _246  and  _248
REMARK   92  A    between atoms: _248  and  _249
REMARK   93  A    between atoms: _248  and  _251
REMARK   94  A    between atoms: _251  and  _252
REMARK   95  A    between atoms: _255  and  _257
REMARK   96  A    between atoms: _257  and  _258
REMARK   97  A    between atoms: _257  and  _260
REMARK   98  A    between atoms: _260  and  _261
REMARK   99  A    between atoms: _261  and  _262
REMARK  100  A    between atoms: _262  and  _263
REMARK  101  A    between atoms: _263  and  _264
REMARK  102  A    between atoms: _268  and  _270
REMARK  103  A    between atoms: _270  and  _271
REMARK  104  A    between atoms: _270  and  _273
REMARK  105  A    between atoms: _273  and  _274
REMARK  106  A    between atoms: _274  and  _275
REMARK  107  A    between atoms: _280  and  _282
REMARK  108  A    between atoms: _282  and  _283
REMARK  109  A    between atoms: _282  and  _285
REMARK  110  A    between atoms: _285  and  _286
REMARK  111  A    between atoms: _289  and  _291
REMARK  112  A    between atoms: _291  and  _292
REMARK  113  A    between atoms: _291  and  _294
REMARK  114  A    between atoms: _294  and  _295
REMARK  115  A    between atoms: _295  and  _296
REMARK  116  A    between atoms: _299  and  _301
REMARK  117  A    between atoms: _301  and  _302
REMARK  118  A    between atoms: _301  and  _304
REMARK  119  A    between atoms: _304  and  _305
REMARK  120  A    between atoms: _308  and  _310
REMARK  121  A    between atoms: _310  and  _311
REMARK  122  A    between atoms: _310  and  _313
REMARK  123  A    between atoms: _313  and  _314
REMARK  124  A    between atoms: _317  and  _319
REMARK  125  A    between atoms: _319  and  _320
REMARK  126  A    between atoms: _319  and  _322
REMARK  127  A    between atoms: _325  and  _327
REMARK  128  A    between atoms: _327  and  _328
REMARK  129  A    between atoms: _327  and  _330
REMARK  130  A    between atoms: _333  and  _335
REMARK  131  A    between atoms: _335  and  _336
REMARK  132  A    between atoms: _339  and  _341
REMARK  133  A    between atoms: _341  and  _342
REMARK  134  A    between atoms: _341  and  _344
REMARK  135  A    between atoms: _344  and  _345
REMARK  136  A    between atoms: _350  and  _352
REMARK  137  A    between atoms: _352  and  _353
REMARK  138  A    between atoms: _352  and  _355
REMARK  139  A    between atoms: _355  and  _356
REMARK  140  A    between atoms: _360  and  ZN_772
REMARK  141  A    between atoms: _361  and  _363
REMARK  142  A    between atoms: _363  and  _364
REMARK  143  A    between atoms: _363  and  _366
REMARK  144  A    between atoms: _366  and  _367
REMARK  145  A    between atoms: _367  and  _368
REMARK  146  A    between atoms: _371  and  _373
REMARK  147  A    between atoms: _373  and  _374
REMARK  148  A    between atoms: _373  and  _376
REMARK  149  A    between atoms: _376  and  _377
REMARK  150  A    between atoms: _377  and  _378
REMARK  151  A    between atoms: _380  and  _382
REMARK  152  A    between atoms: _382  and  _383
REMARK  153  A    between atoms: _382  and  _385
REMARK  154  A    between atoms: _385  and  _386
REMARK  155  A    between atoms: _390  and  ZN_772
REMARK  156  A    between atoms: _391  and  _393
REMARK  157  A    between atoms: _393  and  _394
REMARK  158  A    between atoms: _393  and  _396
REMARK  159  A    between atoms: _396  and  _397
REMARK  160  A    between atoms: _400  and  _402
REMARK  161  A    between atoms: _402  and  _403
REMARK  162  A    between atoms: _402  and  _405
REMARK  163  A    between atoms: _405  and  _406
REMARK  164  A    between atoms: _411  and  _412
REMARK  165  A    between atoms: _414  and  _416
REMARK  166  A    between atoms: _416  and  _417
REMARK  167  A    between atoms: _416  and  _419
REMARK  168  A    between atoms: _419  and  _420
REMARK  169  A    between atoms: _426  and  _428
REMARK  170  A    between atoms: _428  and  _429
REMARK  171  A    between atoms: _428  and  _431
REMARK  172  A    between atoms: _431  and  _432
REMARK  173  A    between atoms: _437  and  _438
REMARK  174  A    between atoms: _440  and  _442
REMARK  175  A    between atoms: _442  and  _443
REMARK  176  A    between atoms: _442  and  _445
REMARK  177  A    between atoms: _445  and  _446
REMARK  178  A    between atoms: _446  and  _447
REMARK  179  A    between atoms: _447  and  _448
REMARK  180  A    between atoms: _457  and  _459
REMARK  181  A    between atoms: _459  and  _460
REMARK  182  A    between atoms: _459  and  _462
REMARK  183  A    between atoms: _462  and  _463
REMARK  184  A    between atoms: _463  and  _464
REMARK  185  A    between atoms: _467  and  _469
REMARK  186  A    between atoms: _469  and  _470
REMARK  187  A    between atoms: _472  and  _474
REMARK  188  A    between atoms: _474  and  _475
REMARK  189  A    between atoms: _474  and  _477
REMARK  190  A    between atoms: _477  and  _478
REMARK  191  A    between atoms: _484  and  _485
REMARK  192  A    between atoms: _490  and  _492
REMARK  193  A    between atoms: _492  and  _493
REMARK  194  A    between atoms: _495  and  _497
REMARK  195  A    between atoms: _497  and  _498
REMARK  196  A    between atoms: _497  and  _500
REMARK  197  A    between atoms: _500  and  _501
REMARK  198  A    between atoms: _507  and  _509
REMARK  199  A    between atoms: _509  and  _510
REMARK  200  A    between atoms: _509  and  _512
REMARK  201  A    between atoms: _512  and  _513
REMARK  202  A    between atoms: _518  and  _520
REMARK  203  A    between atoms: _520  and  _521
REMARK  204  A    between atoms: _520  and  _523
REMARK  205  A    between atoms: _523  and  _524
REMARK  206  A    between atoms: _524  and  _525
REMARK  207  A    between atoms: _525  and  _526
REMARK  208  A    between atoms: _526  and  ZN_772
REMARK  209  A    between atoms: _528  and  _530
REMARK  210  A    between atoms: _530  and  _531
REMARK  211  A    between atoms: _534  and  _536
REMARK  212  A    between atoms: _536  and  _537
REMARK  213  A    between atoms: _539  and  _541
REMARK  214  A    between atoms: _541  and  _542
REMARK  215  A    between atoms: _541  and  _544
REMARK  216  A    between atoms: _544  and  _545
REMARK  217  A    between atoms: _548  and  _550
REMARK  218  A    between atoms: _550  and  _551
REMARK  219  A    between atoms: _554  and  _556
REMARK  220  A    between atoms: _556  and  _557
REMARK  221  A    between atoms: _556  and  _559
REMARK  222  A    between atoms: _559  and  _560
REMARK  223  A    between atoms: _563  and  _565
REMARK  224  A    between atoms: _565  and  _566
REMARK  225  A    between atoms: _565  and  _568
REMARK  226  A    between atoms: _568  and  _569
REMARK  227  A    between atoms: _569  and  _570
REMARK  228  A    between atoms: _570  and  _571
REMARK  229  A    between atoms: _571  and  _572
REMARK  230  A    between atoms: _576  and  _578
REMARK  231  A    between atoms: _578  and  _579
REMARK  232  A    between atoms: _578  and  _581
REMARK  233  A    between atoms: _581  and  _582
REMARK  234  A    between atoms: _588  and  _590
REMARK  235  A    between atoms: _590  and  _591
REMARK  236  A    between atoms: _590  and  _593
REMARK  237  A    between atoms: _593  and  _594
REMARK  238  A    between atoms: _600  and  _602
REMARK  239  A    between atoms: _602  and  _603
REMARK  240  A    between atoms: _602  and  _605
REMARK  241  A    between atoms: _605  and  _606
REMARK  242  A    between atoms: _608  and  _610
REMARK  243  A    between atoms: _610  and  _611
REMARK  244  A    between atoms: _610  and  _613
REMARK  245  A    between atoms: _616  and  _618
REMARK  246  A    between atoms: _618  and  _619
REMARK  247  A    between atoms: _618  and  _621
REMARK  248  A    between atoms: _621  and  _622
REMARK  249  A    between atoms: _622  and  _623
REMARK  250  A    between atoms: _623  and  _624
REMARK  251  A    between atoms: _624  and  _625
REMARK  252  A    between atoms: _629  and  _631
REMARK  253  A    between atoms: _631  and  _632
REMARK  254  A    between atoms: _631  and  _634
REMARK  255  A    between atoms: _634  and  _635
REMARK  256  A    between atoms: _641  and  _643
REMARK  257  A    between atoms: _643  and  _644
REMARK  258  A    between atoms: _643  and  _646
REMARK  259  A    between atoms: _646  and  _647
REMARK  260  A    between atoms: _652  and  _654
REMARK  261  A    between atoms: _654  and  _655
REMARK  262  A    between atoms: _654  and  _657
REMARK  263  A    between atoms: _657  and  _658
REMARK  264  A    between atoms: _660  and  _662
REMARK  265  A    between atoms: _662  and  _663
REMARK  266  A    between atoms: _662  and  _665
REMARK  267  A    between atoms: _665  and  _666
REMARK  268  A    between atoms: _668  and  _670
REMARK  269  A    between atoms: _670  and  _671
REMARK  270  A    between atoms: _670  and  _673
REMARK  271  A    between atoms: _677  and  _678
REMARK  272  A    between atoms: _683  and  _685
REMARK  273  A    between atoms: _685  and  _686
REMARK  274  A    between atoms: _685  and  _688
REMARK  275  A    between atoms: _688  and  _689
REMARK  276  A    between atoms: _694  and  _695
REMARK  277  A    between atoms: _697  and  _699
REMARK  278  A    between atoms: _699  and  _700
REMARK  279  A    between atoms: _699  and  _702
REMARK  280  A    between atoms: _702  and  _703
REMARK  281  A    between atoms: _703  and  _704
REMARK  282  A    between atoms: _704  and  _705
REMARK  283  A    between atoms: _714  and  _716
REMARK  284  A    between atoms: _716  and  _717
REMARK  285  A    between atoms: _716  and  _719
REMARK  286  A    between atoms: _719  and  _720
REMARK  287  A    between atoms: _725  and  _726
REMARK  288  A    between atoms: _728  and  _730
REMARK  289  A    between atoms: _730  and  _731
REMARK  290  A    between atoms: _730  and  _733
REMARK  291  A    between atoms: _733  and  _734
REMARK  292  A    between atoms: _740  and  _742
REMARK  293  A    between atoms: _742  and  _743
REMARK  294  A    between atoms: _742  and  _745
REMARK  295  A    between atoms: _745  and  _746
REMARK  296  A    between atoms: _748  and  _750
REMARK  297  A    between atoms: _750  and  _751
REMARK  298  A    between atoms: _750  and  _753
REMARK  299  A    between atoms: _753  and  _754
REMARK  300  A    between atoms: _760  and  _762
REMARK  301  A    between atoms: _762  and  _763
REMARK  302  A    between atoms: _762  and  _765
REMARK  303  A    between atoms: _765  and  _766
REMARK  304  A    between atoms: _766  and  _767
REMARK                            x       y       z     vdW  Elec       q    Type
REMARK                         _______ _______ _______ _____ _____    ______ ____
ROOT
ATOM      1  O   HOH     1      10.837  -6.465 -13.516  0.00  0.00    +0.000 OA
ENDROOT
TORSDOF 0
REMARK  Name = ../refined-set-2016/2xy9/2xy9_pocket.pdb
REMARK  304 active torsions:
REMARK  status: ('A' for Active; 'I' for Inactive)
REMARK    1  A    between atoms: _1  and  _3
REMARK    2  A    between atoms: _3  and  _4
REMARK    3  A    between atoms: _3  and  _6
REMARK    4  A    between atoms: _6  and  _7
REMARK    5  A    between atoms: _12  and  _14
REMARK    6  A    between atoms: _14  and  _15
REMARK    7  A    between atoms: _14  and  _17
REMARK    8  A    between atoms: _17  and  _18
REMARK    9  A    between atoms: _23  and  _25
REMARK   10  A    between atoms: _25  and  _26
REMARK   11  A    between atoms: _25  and  _28
REMARK   12  A    between atoms: _28  and  _29
REMARK   13  A    between atoms: _29  and  _30
REMARK   14  A    between atoms: _33  and  _35
REMARK   15  A    between atoms: _35  and  _36
REMARK   16  A    between atoms: _35  and  _38
REMARK   17  A    between atoms: _38  and  _39
REMARK   18  A    between atoms: _44  and  _45
REMARK   19  A    between atoms: _47  and  _49
REMARK   20  A    between atoms: _49  and  _50
REMARK   21  A    between atoms: _49  and  _52
REMARK   22  A    between atoms: _52  and  _53
REMARK   23  A    between atoms: _56  and  _58
REMARK   24  A    between atoms: _58  and  _59
REMARK   25  A    between atoms: _61  and  _63
REMARK   26  A    between atoms: _63  and  _64
REMARK   27  A    between atoms: _63  and  _66
REMARK   28  A    between atoms: _66  and  _67
REMARK   29  A    between atoms: _72  and  _74
REMARK   30  A    between atoms: _74  and  _75
REMARK   31  A    between atoms: _74  and  _77
REMARK   32  A    between atoms: _77  and  _78
REMARK   33  A    between atoms: _88  and  _90
REMARK   34  A    between atoms: _90  and  _91
REMARK   35  A    between atoms: _90  and  _93
REMARK   36  A    between atoms: _93  and  _94
REMARK   37  A    between atoms: _94  and  _95
REMARK   38  A    between atoms: _100  and  _102
REMARK   39  A    between atoms: _102  and  _103
REMARK   40  A    between atoms: _102  and  _105
REMARK   41  A    between atoms: _105  and  _106
REMARK   42  A    between atoms: _109  and  _111
REMARK   43  A    between atoms: _111  and  _112
REMARK   44  A    between atoms: _111  and  _114
REMARK   45  A    between atoms: _114  and  _115
REMARK   46  A    between atoms: _125  and  _127
REMARK   47  A    between atoms: _127  and  _128
REMARK   48  A    between atoms: _127  and  _130
REMARK   49  A    between atoms: _130  and  _131
REMARK   50  A    between atoms: _133  and  _135
REMARK   51  A    between atoms: _135  and  _136
REMARK   52  A    between atoms: _135  and  _138
REMARK   53  A    between atoms: _138  and  _139
REMARK   54  A    between atoms: _144  and  _146
REMARK   55  A    between atoms: _146  and  _147
REMARK   56  A    between atoms: _146  and  _149
REMARK   57  A    between atoms: _152  and  _154
REMARK   58  A    between atoms: _154  and  _155
REMARK   59  A    between atoms: _154  and  _157
REMARK   60  A    between atoms: _159  and  _161
REMARK   61  A    between atoms: _161  and  _162
REMARK   62  A    between atoms: _161  and  _164
REMARK   63  A    between atoms: _164  and  _165
REMARK   64  A    between atoms: _170  and  _172
REMARK   65  A    between atoms: _172  and  _173
REMARK   66  A    between atoms: _176  and  _178
REMARK   67  A    between atoms: _178  and  _179
REMARK   68  A    between atoms: _178  and  _181
REMARK   69  A    between atoms: _181  and  _182
REMARK   70  A    between atoms: _184  and  _186
REMARK   71  A    between atoms: _186  and  _187
REMARK   72  A    between atoms: _190  and  _192
REMARK   73  A    between atoms: _192  and  _193
REMARK   74  A    between atoms: _192  and  _195
REMARK   75  A    between atoms: _195  and  _196
REMARK   76  A    between atoms: _206  and  _208
REMARK   77  A    between atoms: _208  and  _209
REMARK   78  A    between atoms: _208  and  _211
REMARK   79  A    between atoms: _211  and  _212
REMARK   80  A    between atoms: _215  and  _217
REMARK   81  A    between atoms: _217  and  _218
REMARK   82  A    between atoms: _217  and  _220
REMARK   83  A    between atoms: _220  and  _221
REMARK   84  A    between atoms: _226  and  _227
REMARK   85  A    between atoms: _229  and  _231
REMARK   86  A    between atoms: _231  and  _232
REMARK   87  A    between atoms: _231  and  _234
REMARK   88  A    between atoms: _234  and  _235
REMARK   89  A    between atoms: _235  and  _236
REMARK   90  A    between atoms: _236  and  _237
REMARK   91  A    between atoms: _246  and  _248
REMARK   92  A    between atoms: _248  and  _249
REMARK   93  A    between atoms: _248  and  _251
REMARK   94  A    between atoms: _251  and  _252
REMARK   95  A    between atoms: _255  and  _257
REMARK   96  A    between atoms: _257  and  _258
REMARK   97  A    between atoms: _257  and  _260
REMARK   98  A    between atoms: _260  and  _261
REMARK   99  A    between atoms: _261  and  _262
REMARK  100  A    between atoms: _262  and  _263
REMARK  101  A    between atoms: _263  and  _264
REMARK  102  A    between atoms: _268  and  _270
REMARK  103  A    between atoms: _270  and  _271
REMARK  104  A    between atoms: _270  and  _273
REMARK  105  A    between atoms: _273  and  _274
REMARK  106  A    between atoms: _274  and  _275
REMARK  107  A    between atoms: _280  and  _282
REMARK  108  A    between atoms: _282  and  _283
REMARK  109  A    between atoms: _282  and  _285
REMARK  110  A    between atoms: _285  and  _286
REMARK  111  A    between atoms: _289  and  _291
REMARK  112  A    between atoms: _291  and  _292
REMARK  113  A    between atoms: _291  and  _294
REMARK  114  A    between atoms: _294  and  _295
REMARK  115  A    between atoms: _295  and  _296
REMARK  116  A    between atoms: _299  and  _301
REMARK  117  A    between atoms: _301  and  _302
REMARK  118  A    between atoms: _301  and  _304
REMARK  119  A    between atoms: _304  and  _305
REMARK  120  A    between atoms: _308  and  _310
REMARK  121  A    between atoms: _310  and  _311
REMARK  122  A    between atoms: _310  and  _313
REMARK  123  A    between atoms: _313  and  _314
REMARK  124  A    between atoms: _317  and  _319
REMARK  125  A    between atoms: _319  and  _320
REMARK  126  A    between atoms: _319  and  _322
REMARK  127  A    between atoms: _325  and  _327
REMARK  128  A    between atoms: _327  and  _328
REMARK  129  A    between atoms: _327  and  _330
REMARK  130  A    between atoms: _333  and  _335
REMARK  131  A    between atoms: _335  and  _336
REMARK  132  A    between atoms: _339  and  _341
REMARK  133  A    between atoms: _341  and  _342
REMARK  134  A    between atoms: _341  and  _344
REMARK  135  A    between atoms: _344  and  _345
REMARK  136  A    between atoms: _350  and  _352
REMARK  137  A    between atoms: _352  and  _353
REMARK  138  A    between atoms: _352  and  _355
REMARK  139  A    between atoms: _355  and  _356
REMARK  140  A    between atoms: _360  and  ZN_772
REMARK  141  A    between atoms: _361  and  _363
REMARK  142  A    between atoms: _363  and  _364
REMARK  143  A    between atoms: _363  and  _366
REMARK  144  A    between atoms: _366  and  _367
REMARK  145  A    between atoms: _367  and  _368
REMARK  146  A    between atoms: _371  and  _373
REMARK  147  A    between atoms: _373  and  _374
REMARK  148  A    between atoms: _373  and  _376
REMARK  149  A    between atoms: _376  and  _377
REMARK  150  A    between atoms: _377  and  _378
REMARK  151  A    between atoms: _380  and  _382
REMARK  152  A    between atoms: _382  and  _383
REMARK  153  A    between atoms: _382  and  _385
REMARK  154  A    between atoms: _385  and  _386
REMARK  155  A    between atoms: _390  and  ZN_772
REMARK  156  A    between atoms: _391  and  _393
REMARK  157  A    between atoms: _393  and  _394
REMARK  158  A    between atoms: _393  and  _396
REMARK  159  A    between atoms: _396  and  _397
REMARK  160  A    between atoms: _400  and  _402
REMARK  161  A    between atoms: _402  and  _403
REMARK  162  A    between atoms: _402  and  _405
REMARK  163  A    between atoms: _405  and  _406
REMARK  164  A    between atoms: _411  and  _412
REMARK  165  A    between atoms: _414  and  _416
REMARK  166  A    between atoms: _416  and  _417
REMARK  167  A    between atoms: _416  and  _419
REMARK  168  A    between atoms: _419  and  _420
REMARK  169  A    between atoms: _426  and  _428
REMARK  170  A    between atoms: _428  and  _429
REMARK  171  A    between atoms: _428  and  _431
REMARK  172  A    between atoms: _431  and  _432
REMARK  173  A    between atoms: _437  and  _438
REMARK  174  A    between atoms: _440  and  _442
REMARK  175  A    between atoms: _442  and  _443
REMARK  176  A    between atoms: _442  and  _445
REMARK  177  A    between atoms: _445  and  _446
REMARK  178  A    between atoms: _446  and  _447
REMARK  179  A    between atoms: _447  and  _448
REMARK  180  A    between atoms: _457  and  _459
REMARK  181  A    between atoms: _459  and  _460
REMARK  182  A    between atoms: _459  and  _462
REMARK  183  A    between atoms: _462  and  _463
REMARK  184  A    between atoms: _463  and  _464
REMARK  185  A    between atoms: _467  and  _469
REMARK  186  A    between atoms: _469  and  _470
REMARK  187  A    between atoms: _472  and  _474
REMARK  188  A    between atoms: _474  and  _475
REMARK  189  A    between atoms: _474  and  _477
REMARK  190  A    between atoms: _477  and  _478
REMARK  191  A    between atoms: _484  and  _485
REMARK  192  A    between atoms: _490  and  _492
REMARK  193  A    between atoms: _492  and  _493
REMARK  194  A    between atoms: _495  and  _497
REMARK  195  A    between atoms: _497  and  _498
REMARK  196  A    between atoms: _497  and  _500
REMARK  197  A    between atoms: _500  and  _501
REMARK  198  A    between atoms: _507  and  _509
REMARK  199  A    between atoms: _509  and  _510
REMARK  200  A    between atoms: _509  and  _512
REMARK  201  A    between atoms: _512  and  _513
REMARK  202  A    between atoms: _518  and  _520
REMARK  203  A    between atoms: _520  and  _521
REMARK  204  A    between atoms: _520  and  _523
REMARK  205  A    between atoms: _523  and  _524
REMARK  206  A    between atoms: _524  and  _525
REMARK  207  A    between atoms: _525  and  _526
REMARK  208  A    between atoms: _526  and  ZN_772
REMARK  209  A    between atoms: _528  and  _530
REMARK  210  A    between atoms: _530  and  _531
REMARK  211  A    between atoms: _534  and  _536
REMARK  212  A    between atoms: _536  and  _537
REMARK  213  A    between atoms: _539  and  _541
REMARK  214  A    between atoms: _541  and  _542
REMARK  215  A    between atoms: _541  and  _544
REMARK  216  A    between atoms: _544  and  _545
REMARK  217  A    between atoms: _548  and  _550
REMARK  218  A    between atoms: _550  and  _551
REMARK  219  A    between atoms: _554  and  _556
REMARK  220  A    between atoms: _556  and  _557
REMARK  221  A    between atoms: _556  and  _559
REMARK  222  A    between atoms: _559  and  _560
REMARK  223  A    between atoms: _563  and  _565
REMARK  224  A    between atoms: _565  and  _566
REMARK  225  A    between atoms: _565  and  _568
REMARK  226  A    between atoms: _568  and  _569
REMARK  227  A    between atoms: _569  and  _570
REMARK  228  A    between atoms: _570  and  _571
REMARK  229  A    between atoms: _571  and  _572
REMARK  230  A    between atoms: _576  and  _578
REMARK  231  A    between atoms: _578  and  _579
REMARK  232  A    between atoms: _578  and  _581
REMARK  233  A    between atoms: _581  and  _582
REMARK  234  A    between atoms: _588  and  _590
REMARK  235  A    between atoms: _590  and  _591
REMARK  236  A    between atoms: _590  and  _593
REMARK  237  A    between atoms: _593  and  _594
REMARK  238  A    between atoms: _600  and  _602
REMARK  239  A    between atoms: _602  and  _603
REMARK  240  A    between atoms: _602  and  _605
REMARK  241  A    between atoms: _605  and  _606
REMARK  242  A    between atoms: _608  and  _610
REMARK  243  A    between atoms: _610  and  _611
REMARK  244  A    between atoms: _610  and  _613
REMARK  245  A    between atoms: _616  and  _618
REMARK  246  A    between atoms: _618  and  _619
REMARK  247  A    between atoms: _618  and  _621
REMARK  248  A    between atoms: _621  and  _622
REMARK  249  A    between atoms: _622  and  _623
REMARK  250  A    between atoms: _623  and  _624
REMARK  251  A    between atoms: _624  and  _625
REMARK  252  A    between atoms: _629  and  _631
REMARK  253  A    between atoms: _631  and  _632
REMARK  254  A    between atoms: _631  and  _634
REMARK  255  A    between atoms: _634  and  _635
REMARK  256  A    between atoms: _641  and  _643
REMARK  257  A    between atoms: _643  and  _644
REMARK  258  A    between atoms: _643  and  _646
REMARK  259  A    between atoms: _646  and  _647
REMARK  260  A    between atoms: _652  and  _654
REMARK  261  A    between atoms: _654  and  _655
REMARK  262  A    between atoms: _654  and  _657
REMARK  263  A    between atoms: _657  and  _658
REMARK  264  A    between atoms: _660  and  _662
REMARK  265  A    between atoms: _662  and  _663
REMARK  266  A    between atoms: _662  and  _665
REMARK  267  A    between atoms: _665  and  _666
REMARK  268  A    between atoms: _668  and  _670
REMARK  269  A    between atoms: _670  and  _671
REMARK  270  A    between atoms: _670  and  _673
REMARK  271  A    between atoms: _677  and  _678
REMARK  272  A    between atoms: _683  and  _685
REMARK  273  A    between atoms: _685  and  _686
REMARK  274  A    between atoms: _685  and  _688
REMARK  275  A    between atoms: _688  and  _689
REMARK  276  A    between atoms: _694  and  _695
REMARK  277  A    between atoms: _697  and  _699
REMARK  278  A    between atoms: _699  and  _700
REMARK  279  A    between atoms: _699  and  _702
REMARK  280  A    between atoms: _702  and  _703
REMARK  281  A    between atoms: _703  and  _704
REMARK  282  A    between atoms: _704  and  _705
REMARK  283  A    between atoms: _714  and  _716
REMARK  284  A    between atoms: _716  and  _717
REMARK  285  A    between atoms: _716  and  _719
REMARK  286  A    between atoms: _719  and  _720
REMARK  287  A    between atoms: _725  and  _726
REMARK  288  A    between atoms: _728  and  _730
REMARK  289  A    between atoms: _730  and  _731
REMARK  290  A    between atoms: _730  and  _733
REMARK  291  A    between atoms: _733  and  _734
REMARK  292  A    between atoms: _740  and  _742
REMARK  293  A    between atoms: _742  and  _743
REMARK  294  A    between atoms: _742  and  _745
REMARK  295  A    between atoms: _745  and  _746
REMARK  296  A    between atoms: _748  and  _750
REMARK  297  A    between atoms: _750  and  _751
REMARK  298  A    between atoms: _750  and  _753
REMARK  299  A    between atoms: _753  and  _754
REMARK  300  A    between atoms: _760  and  _762
REMARK  301  A    between atoms: _762  and  _763
REMARK  302  A    between atoms: _762  and  _765
REMARK  303  A    between atoms: _765  and  _766
REMARK  304  A    between atoms: _766  and  _767
REMARK                            x       y       z     vdW  Elec       q    Type
REMARK                         _______ _______ _______ _____ _____    ______ ____
ROOT
ATOM      1  O   HOH     1      22.048 -13.860 -33.610  0.00  0.00    +0.000 OA
ENDROOT
TORSDOF 0
REMARK  Name = ../refined-set-2016/2xy9/2xy9_pocket.pdb
REMARK  304 active torsions:
REMARK  status: ('A' for Active; 'I' for Inactive)
REMARK    1  A    between atoms: _1  and  _3
REMARK    2  A    between atoms: _3  and  _4
REMARK    3  A    between atoms: _3  and  _6
REMARK    4  A    between atoms: _6  and  _7
REMARK    5  A    between atoms: _12  and  _14
REMARK    6  A    between atoms: _14  and  _15
REMARK    7  A    between atoms: _14  and  _17
REMARK    8  A    between atoms: _17  and  _18
REMARK    9  A    between atoms: _23  and  _25
REMARK   10  A    between atoms: _25  and  _26
REMARK   11  A    between atoms: _25  and  _28
REMARK   12  A    between atoms: _28  and  _29
REMARK   13  A    between atoms: _29  and  _30
REMARK   14  A    between atoms: _33  and  _35
REMARK   15  A    between atoms: _35  and  _36
REMARK   16  A    between atoms: _35  and  _38
REMARK   17  A    between atoms: _38  and  _39
REMARK   18  A    between atoms: _44  and  _45
REMARK   19  A    between atoms: _47  and  _49
REMARK   20  A    between atoms: _49  and  _50
REMARK   21  A    between atoms: _49  and  _52
REMARK   22  A    between atoms: _52  and  _53
REMARK   23  A    between atoms: _56  and  _58
REMARK   24  A    between atoms: _58  and  _59
REMARK   25  A    between atoms: _61  and  _63
REMARK   26  A    between atoms: _63  and  _64
REMARK   27  A    between atoms: _63  and  _66
REMARK   28  A    between atoms: _66  and  _67
REMARK   29  A    between atoms: _72  and  _74
REMARK   30  A    between atoms: _74  and  _75
REMARK   31  A    between atoms: _74  and  _77
REMARK   32  A    between atoms: _77  and  _78
REMARK   33  A    between atoms: _88  and  _90
REMARK   34  A    between atoms: _90  and  _91
REMARK   35  A    between atoms: _90  and  _93
REMARK   36  A    between atoms: _93  and  _94
REMARK   37  A    between atoms: _94  and  _95
REMARK   38  A    between atoms: _100  and  _102
REMARK   39  A    between atoms: _102  and  _103
REMARK   40  A    between atoms: _102  and  _105
REMARK   41  A    between atoms: _105  and  _106
REMARK   42  A    between atoms: _109  and  _111
REMARK   43  A    between atoms: _111  and  _112
REMARK   44  A    between atoms: _111  and  _114
REMARK   45  A    between atoms: _114  and  _115
REMARK   46  A    between atoms: _125  and  _127
REMARK   47  A    between atoms: _127  and  _128
REMARK   48  A    between atoms: _127  and  _130
REMARK   49  A    between atoms: _130  and  _131
REMARK   50  A    between atoms: _133  and  _135
REMARK   51  A    between atoms: _135  and  _136
REMARK   52  A    between atoms: _135  and  _138
REMARK   53  A    between atoms: _138  and  _139
REMARK   54  A    between atoms: _144  and  _146
REMARK   55  A    between atoms: _146  and  _147
REMARK   56  A    between atoms: _146  and  _149
REMARK   57  A    between atoms: _152  and  _154
REMARK   58  A    between atoms: _154  and  _155
REMARK   59  A    between atoms: _154  and  _157
REMARK   60  A    between atoms: _159  and  _161
REMARK   61  A    between atoms: _161  and  _162
REMARK   62  A    between atoms: _161  and  _164
REMARK   63  A    between atoms: _164  and  _165
REMARK   64  A    between atoms: _170  and  _172
REMARK   65  A    between atoms: _172  and  _173
REMARK   66  A    between atoms: _176  and  _178
REMARK   67  A    between atoms: _178  and  _179
REMARK   68  A    between atoms: _178  and  _181
REMARK   69  A    between atoms: _181  and  _182
REMARK   70  A    between atoms: _184  and  _186
REMARK   71  A    between atoms: _186  and  _187
REMARK   72  A    between atoms: _190  and  _192
REMARK   73  A    between atoms: _192  and  _193
REMARK   74  A    between atoms: _192  and  _195
REMARK   75  A    between atoms: _195  and  _196
REMARK   76  A    between atoms: _206  and  _208
REMARK   77  A    between atoms: _208  and  _209
REMARK   78  A    between atoms: _208  and  _211
REMARK   79  A    between atoms: _211  and  _212
REMARK   80  A    between atoms: _215  and  _217
REMARK   81  A    between atoms: _217  and  _218
REMARK   82  A    between atoms: _217  and  _220
REMARK   83  A    between atoms: _220  and  _221
REMARK   84  A    between atoms: _226  and  _227
REMARK   85  A    between atoms: _229  and  _231
REMARK   86  A    between atoms: _231  and  _232
REMARK   87  A    between atoms: _231  and  _234
REMARK   88  A    between atoms: _234  and  _235
REMARK   89  A    between atoms: _235  and  _236
REMARK   90  A    between atoms: _236  and  _237
REMARK   91  A    between atoms: _246  and  _248
REMARK   92  A    between atoms: _248  and  _249
REMARK   93  A    between atoms: _248  and  _251
REMARK   94  A    between atoms: _251  and  _252
REMARK   95  A    between atoms: _255  and  _257
REMARK   96  A    between atoms: _257  and  _258
REMARK   97  A    between atoms: _257  and  _260
REMARK   98  A    between atoms: _260  and  _261
REMARK   99  A    between atoms: _261  and  _262
REMARK  100  A    between atoms: _262  and  _263
REMARK  101  A    between atoms: _263  and  _264
REMARK  102  A    between atoms: _268  and  _270
REMARK  103  A    between atoms: _270  and  _271
REMARK  104  A    between atoms: _270  and  _273
REMARK  105  A    between atoms: _273  and  _274
REMARK  106  A    between atoms: _274  and  _275
REMARK  107  A    between atoms: _280  and  _282
REMARK  108  A    between atoms: _282  and  _283
REMARK  109  A    between atoms: _282  and  _285
REMARK  110  A    between atoms: _285  and  _286
REMARK  111  A    between atoms: _289  and  _291
REMARK  112  A    between atoms: _291  and  _292
REMARK  113  A    between atoms: _291  and  _294
REMARK  114  A    between atoms: _294  and  _295
REMARK  115  A    between atoms: _295  and  _296
REMARK  116  A    between atoms: _299  and  _301
REMARK  117  A    between atoms: _301  and  _302
REMARK  118  A    between atoms: _301  and  _304
REMARK  119  A    between atoms: _304  and  _305
REMARK  120  A    between atoms: _308  and  _310
REMARK  121  A    between atoms: _310  and  _311
REMARK  122  A    between atoms: _310  and  _313
REMARK  123  A    between atoms: _313  and  _314
REMARK  124  A    between atoms: _317  and  _319
REMARK  125  A    between atoms: _319  and  _320
REMARK  126  A    between atoms: _319  and  _322
REMARK  127  A    between atoms: _325  and  _327
REMARK  128  A    between atoms: _327  and  _328
REMARK  129  A    between atoms: _327  and  _330
REMARK  130  A    between atoms: _333  and  _335
REMARK  131  A    between atoms: _335  and  _336
REMARK  132  A    between atoms: _339  and  _341
REMARK  133  A    between atoms: _341  and  _342
REMARK  134  A    between atoms: _341  and  _344
REMARK  135  A    between atoms: _344  and  _345
REMARK  136  A    between atoms: _350  and  _352
REMARK  137  A    between atoms: _352  and  _353
REMARK  138  A    between atoms: _352  and  _355
REMARK  139  A    between atoms: _355  and  _356
REMARK  140  A    between atoms: _360  and  ZN_772
REMARK  141  A    between atoms: _361  and  _363
REMARK  142  A    between atoms: _363  and  _364
REMARK  143  A    between atoms: _363  and  _366
REMARK  144  A    between atoms: _366  and  _367
REMARK  145  A    between atoms: _367  and  _368
REMARK  146  A    between atoms: _371  and  _373
REMARK  147  A    between atoms: _373  and  _374
REMARK  148  A    between atoms: _373  and  _376
REMARK  149  A    between atoms: _376  and  _377
REMARK  150  A    between atoms: _377  and  _378
REMARK  151  A    between atoms: _380  and  _382
REMARK  152  A    between atoms: _382  and  _383
REMARK  153  A    between atoms: _382  and  _385
REMARK  154  A    between atoms: _385  and  _386
REMARK  155  A    between atoms: _390  and  ZN_772
REMARK  156  A    between atoms: _391  and  _393
REMARK  157  A    between atoms: _393  and  _394
REMARK  158  A    between atoms: _393  and  _396
REMARK  159  A    between atoms: _396  and  _397
REMARK  160  A    between atoms: _400  and  _402
REMARK  161  A    between atoms: _402  and  _403
REMARK  162  A    between atoms: _402  and  _405
REMARK  163  A    between atoms: _405  and  _406
REMARK  164  A    between atoms: _411  and  _412
REMARK  165  A    between atoms: _414  and  _416
REMARK  166  A    between atoms: _416  and  _417
REMARK  167  A    between atoms: _416  and  _419
REMARK  168  A    between atoms: _419  and  _420
REMARK  169  A    between atoms: _426  and  _428
REMARK  170  A    between atoms: _428  and  _429
REMARK  171  A    between atoms: _428  and  _431
REMARK  172  A    between atoms: _431  and  _432
REMARK  173  A    between atoms: _437  and  _438
REMARK  174  A    between atoms: _440  and  _442
REMARK  175  A    between atoms: _442  and  _443
REMARK  176  A    between atoms: _442  and  _445
REMARK  177  A    between atoms: _445  and  _446
REMARK  178  A    between atoms: _446  and  _447
REMARK  179  A    between atoms: _447  and  _448
REMARK  180  A    between atoms: _457  and  _459
REMARK  181  A    between atoms: _459  and  _460
REMARK  182  A    between atoms: _459  and  _462
REMARK  183  A    between atoms: _462  and  _463
REMARK  184  A    between atoms: _463  and  _464
REMARK  185  A    between atoms: _467  and  _469
REMARK  186  A    between atoms: _469  and  _470
REMARK  187  A    between atoms: _472  and  _474
REMARK  188  A    between atoms: _474  and  _475
REMARK  189  A    between atoms: _474  and  _477
REMARK  190  A    between atoms: _477  and  _478
REMARK  191  A    between atoms: _484  and  _485
REMARK  192  A    between atoms: _490  and  _492
REMARK  193  A    between atoms: _492  and  _493
REMARK  194  A    between atoms: _495  and  _497
REMARK  195  A    between atoms: _497  and  _498
REMARK  196  A    between atoms: _497  and  _500
REMARK  197  A    between atoms: _500  and  _501
REMARK  198  A    between atoms: _507  and  _509
REMARK  199  A    between atoms: _509  and  _510
REMARK  200  A    between atoms: _509  and  _512
REMARK  201  A    between atoms: _512  and  _513
REMARK  202  A    between atoms: _518  and  _520
REMARK  203  A    between atoms: _520  and  _521
REMARK  204  A    between atoms: _520  and  _523
REMARK  205  A    between atoms: _523  and  _524
REMARK  206  A    between atoms: _524  and  _525
REMARK  207  A    between atoms: _525  and  _526
REMARK  208  A    between atoms: _526  and  ZN_772
REMARK  209  A    between atoms: _528  and  _530
REMARK  210  A    between atoms: _530  and  _531
REMARK  211  A    between atoms: _534  and  _536
REMARK  212  A    between atoms: _536  and  _537
REMARK  213  A    between atoms: _539  and  _541
REMARK  214  A    between atoms: _541  and  _542
REMARK  215  A    between atoms: _541  and  _544
REMARK  216  A    between atoms: _544  and  _545
REMARK  217  A    between atoms: _548  and  _550
REMARK  218  A    between atoms: _550  and  _551
REMARK  219  A    between atoms: _554  and  _556
REMARK  220  A    between atoms: _556  and  _557
REMARK  221  A    between atoms: _556  and  _559
REMARK  222  A    between atoms: _559  and  _560
REMARK  223  A    between atoms: _563  and  _565
REMARK  224  A    between atoms: _565  and  _566
REMARK  225  A    between atoms: _565  and  _568
REMARK  226  A    between atoms: _568  and  _569
REMARK  227  A    between atoms: _569  and  _570
REMARK  228  A    between atoms: _570  and  _571
REMARK  229  A    between atoms: _571  and  _572
REMARK  230  A    between atoms: _576  and  _578
REMARK  231  A    between atoms: _578  and  _579
REMARK  232  A    between atoms: _578  and  _581
REMARK  233  A    between atoms: _581  and  _582
REMARK  234  A    between atoms: _588  and  _590
REMARK  235  A    between atoms: _590  and  _591
REMARK  236  A    between atoms: _590  and  _593
REMARK  237  A    between atoms: _593  and  _594
REMARK  238  A    between atoms: _600  and  _602
REMARK  239  A    between atoms: _602  and  _603
REMARK  240  A    between atoms: _602  and  _605
REMARK  241  A    between atoms: _605  and  _606
REMARK  242  A    between atoms: _608  and  _610
REMARK  243  A    between atoms: _610  and  _611
REMARK  244  A    between atoms: _610  and  _613
REMARK  245  A    between atoms: _616  and  _618
REMARK  246  A    between atoms: _618  and  _619
REMARK  247  A    between atoms: _618  and  _621
REMARK  248  A    between atoms: _621  and  _622
REMARK  249  A    between atoms: _622  and  _623
REMARK  250  A    between atoms: _623  and  _624
REMARK  251  A    between atoms: _624  and  _625
REMARK  252  A    between atoms: _629  and  _631
REMARK  253  A    between atoms: _631  and  _632
REMARK  254  A    between atoms: _631  and  _634
REMARK  255  A    between atoms: _634  and  _635
REMARK  256  A    between atoms: _641  and  _643
REMARK  257  A    between atoms: _643  and  _644
REMARK  258  A    between atoms: _643  and  _646
REMARK  259  A    between atoms: _646  and  _647
REMARK  260  A    between atoms: _652  and  _654
REMARK  261  A    between atoms: _654  and  _655
REMARK  262  A    between atoms: _654  and  _657
REMARK  263  A    between atoms: _657  and  _658
REMARK  264  A    between atoms: _660  and  _662
REMARK  265  A    between atoms: _662  and  _663
REMARK  266  A    between atoms: _662  and  _665
REMARK  267  A    between atoms: _665  and  _666
REMARK  268  A    between atoms: _668  and  _670
REMARK  269  A    between atoms: _670  and  _671
REMARK  270  A    between atoms: _670  and  _673
REMARK  271  A    between atoms: _677  and  _678
REMARK  272  A    between atoms: _683  and  _685
REMARK  273  A    between atoms: _685  and  _686
REMARK  274  A    between atoms: _685  and  _688
REMARK  275  A    between atoms: _688  and  _689
REMARK  276  A    between atoms: _694  and  _695
REMARK  277  A    between atoms: _697  and  _699
REMARK  278  A    between atoms: _699  and  _700
REMARK  279  A    between atoms: _699  and  _702
REMARK  280  A    between atoms: _702  and  _703
REMARK  281  A    between atoms: _703  and  _704
REMARK  282  A    between atoms: _704  and  _705
REMARK  283  A    between atoms: _714  and  _716
REMARK  284  A    between atoms: _716  and  _717
REMARK  285  A    between atoms: _716  and  _719
REMARK  286  A    between atoms: _719  and  _720
REMARK  287  A    between atoms: _725  and  _726
REMARK  288  A    between atoms: _728  and  _730
REMARK  289  A    between atoms: _730  and  _731
REMARK  290  A    between atoms: _730  and  _733
REMARK  291  A    between atoms: _733  and  _734
REMARK  292  A    between atoms: _740  and  _742
REMARK  293  A    between atoms: _742  and  _743
REMARK  294  A    between atoms: _742  and  _745
REMARK  295  A    between atoms: _745  and  _746
REMARK  296  A    between atoms: _748  and  _750
REMARK  297  A    between atoms: _750  and  _751
REMARK  298  A    between atoms: _750  and  _753
REMARK  299  A    between atoms: _753  and  _754
REMARK  300  A    between atoms: _760  and  _762
REMARK  301  A    between atoms: _762  and  _763
REMARK  302  A    between atoms: _762  and  _765
REMARK  303  A    between atoms: _765  and  _766
REMARK  304  A    between atoms: _766  and  _767
REMARK                            x       y       z     vdW  Elec       q    Type
REMARK                         _______ _______ _______ _____ _____    ______ ____
ROOT
ATOM      1  O   HOH     1       9.729 -11.433 -22.077  0.00  0.00    +0.000 OA
ENDROOT
TORSDOF 0
REMARK  Name = ../refined-set-2016/2xy9/2xy9_pocket.pdb
REMARK  304 active torsions:
REMARK  status: ('A' for Active; 'I' for Inactive)
REMARK    1  A    between atoms: _1  and  _3
REMARK    2  A    between atoms: _3  and  _4
REMARK    3  A    between atoms: _3  and  _6
REMARK    4  A    between atoms: _6  and  _7
REMARK    5  A    between atoms: _12  and  _14
REMARK    6  A    between atoms: _14  and  _15
REMARK    7  A    between atoms: _14  and  _17
REMARK    8  A    between atoms: _17  and  _18
REMARK    9  A    between atoms: _23  and  _25
REMARK   10  A    between atoms: _25  and  _26
REMARK   11  A    between atoms: _25  and  _28
REMARK   12  A    between atoms: _28  and  _29
REMARK   13  A    between atoms: _29  and  _30
REMARK   14  A    between atoms: _33  and  _35
REMARK   15  A    between atoms: _35  and  _36
REMARK   16  A    between atoms: _35  and  _38
REMARK   17  A    between atoms: _38  and  _39
REMARK   18  A    between atoms: _44  and  _45
REMARK   19  A    between atoms: _47  and  _49
REMARK   20  A    between atoms: _49  and  _50
REMARK   21  A    between atoms: _49  and  _52
REMARK   22  A    between atoms: _52  and  _53
REMARK   23  A    between atoms: _56  and  _58
REMARK   24  A    between atoms: _58  and  _59
REMARK   25  A    between atoms: _61  and  _63
REMARK   26  A    between atoms: _63  and  _64
REMARK   27  A    between atoms: _63  and  _66
REMARK   28  A    between atoms: _66  and  _67
REMARK   29  A    between atoms: _72  and  _74
REMARK   30  A    between atoms: _74  and  _75
REMARK   31  A    between atoms: _74  and  _77
REMARK   32  A    between atoms: _77  and  _78
REMARK   33  A    between atoms: _88  and  _90
REMARK   34  A    between atoms: _90  and  _91
REMARK   35  A    between atoms: _90  and  _93
REMARK   36  A    between atoms: _93  and  _94
REMARK   37  A    between atoms: _94  and  _95
REMARK   38  A    between atoms: _100  and  _102
REMARK   39  A    between atoms: _102  and  _103
REMARK   40  A    between atoms: _102  and  _105
REMARK   41  A    between atoms: _105  and  _106
REMARK   42  A    between atoms: _109  and  _111
REMARK   43  A    between atoms: _111  and  _112
REMARK   44  A    between atoms: _111  and  _114
REMARK   45  A    between atoms: _114  and  _115
REMARK   46  A    between atoms: _125  and  _127
REMARK   47  A    between atoms: _127  and  _128
REMARK   48  A    between atoms: _127  and  _130
REMARK   49  A    between atoms: _130  and  _131
REMARK   50  A    between atoms: _133  and  _135
REMARK   51  A    between atoms: _135  and  _136
REMARK   52  A    between atoms: _135  and  _138
REMARK   53  A    between atoms: _138  and  _139
REMARK   54  A    between atoms: _144  and  _146
REMARK   55  A    between atoms: _146  and  _147
REMARK   56  A    between atoms: _146  and  _149
REMARK   57  A    between atoms: _152  and  _154
REMARK   58  A    between atoms: _154  and  _155
REMARK   59  A    between atoms: _154  and  _157
REMARK   60  A    between atoms: _159  and  _161
REMARK   61  A    between atoms: _161  and  _162
REMARK   62  A    between atoms: _161  and  _164
REMARK   63  A    between atoms: _164  and  _165
REMARK   64  A    between atoms: _170  and  _172
REMARK   65  A    between atoms: _172  and  _173
REMARK   66  A    between atoms: _176  and  _178
REMARK   67  A    between atoms: _178  and  _179
REMARK   68  A    between atoms: _178  and  _181
REMARK   69  A    between atoms: _181  and  _182
REMARK   70  A    between atoms: _184  and  _186
REMARK   71  A    between atoms: _186  and  _187
REMARK   72  A    between atoms: _190  and  _192
REMARK   73  A    between atoms: _192  and  _193
REMARK   74  A    between atoms: _192  and  _195
REMARK   75  A    between atoms: _195  and  _196
REMARK   76  A    between atoms: _206  and  _208
REMARK   77  A    between atoms: _208  and  _209
REMARK   78  A    between atoms: _208  and  _211
REMARK   79  A    between atoms: _211  and  _212
REMARK   80  A    between atoms: _215  and  _217
REMARK   81  A    between atoms: _217  and  _218
REMARK   82  A    between atoms: _217  and  _220
REMARK   83  A    between atoms: _220  and  _221
REMARK   84  A    between atoms: _226  and  _227
REMARK   85  A    between atoms: _229  and  _231
REMARK   86  A    between atoms: _231  and  _232
REMARK   87  A    between atoms: _231  and  _234
REMARK   88  A    between atoms: _234  and  _235
REMARK   89  A    between atoms: _235  and  _236
REMARK   90  A    between atoms: _236  and  _237
REMARK   91  A    between atoms: _246  and  _248
REMARK   92  A    between atoms: _248  and  _249
REMARK   93  A    between atoms: _248  and  _251
REMARK   94  A    between atoms: _251  and  _252
REMARK   95  A    between atoms: _255  and  _257
REMARK   96  A    between atoms: _257  and  _258
REMARK   97  A    between atoms: _257  and  _260
REMARK   98  A    between atoms: _260  and  _261
REMARK   99  A    between atoms: _261  and  _262
REMARK  100  A    between atoms: _262  and  _263
REMARK  101  A    between atoms: _263  and  _264
REMARK  102  A    between atoms: _268  and  _270
REMARK  103  A    between atoms: _270  and  _271
REMARK  104  A    between atoms: _270  and  _273
REMARK  105  A    between atoms: _273  and  _274
REMARK  106  A    between atoms: _274  and  _275
REMARK  107  A    between atoms: _280  and  _282
REMARK  108  A    between atoms: _282  and  _283
REMARK  109  A    between atoms: _282  and  _285
REMARK  110  A    between atoms: _285  and  _286
REMARK  111  A    between atoms: _289  and  _291
REMARK  112  A    between atoms: _291  and  _292
REMARK  113  A    between atoms: _291  and  _294
REMARK  114  A    between atoms: _294  and  _295
REMARK  115  A    between atoms: _295  and  _296
REMARK  116  A    between atoms: _299  and  _301
REMARK  117  A    between atoms: _301  and  _302
REMARK  118  A    between atoms: _301  and  _304
REMARK  119  A    between atoms: _304  and  _305
REMARK  120  A    between atoms: _308  and  _310
REMARK  121  A    between atoms: _310  and  _311
REMARK  122  A    between atoms: _310  and  _313
REMARK  123  A    between atoms: _313  and  _314
REMARK  124  A    between atoms: _317  and  _319
REMARK  125  A    between atoms: _319  and  _320
REMARK  126  A    between atoms: _319  and  _322
REMARK  127  A    between atoms: _325  and  _327
REMARK  128  A    between atoms: _327  and  _328
REMARK  129  A    between atoms: _327  and  _330
REMARK  130  A    between atoms: _333  and  _335
REMARK  131  A    between atoms: _335  and  _336
REMARK  132  A    between atoms: _339  and  _341
REMARK  133  A    between atoms: _341  and  _342
REMARK  134  A    between atoms: _341  and  _344
REMARK  135  A    between atoms: _344  and  _345
REMARK  136  A    between atoms: _350  and  _352
REMARK  137  A    between atoms: _352  and  _353
REMARK  138  A    between atoms: _352  and  _355
REMARK  139  A    between atoms: _355  and  _356
REMARK  140  A    between atoms: _360  and  ZN_772
REMARK  141  A    between atoms: _361  and  _363
REMARK  142  A    between atoms: _363  and  _364
REMARK  143  A    between atoms: _363  and  _366
REMARK  144  A    between atoms: _366  and  _367
REMARK  145  A    between atoms: _367  and  _368
REMARK  146  A    between atoms: _371  and  _373
REMARK  147  A    between atoms: _373  and  _374
REMARK  148  A    between atoms: _373  and  _376
REMARK  149  A    between atoms: _376  and  _377
REMARK  150  A    between atoms: _377  and  _378
REMARK  151  A    between atoms: _380  and  _382
REMARK  152  A    between atoms: _382  and  _383
REMARK  153  A    between atoms: _382  and  _385
REMARK  154  A    between atoms: _385  and  _386
REMARK  155  A    between atoms: _390  and  ZN_772
REMARK  156  A    between atoms: _391  and  _393
REMARK  157  A    between atoms: _393  and  _394
REMARK  158  A    between atoms: _393  and  _396
REMARK  159  A    between atoms: _396  and  _397
REMARK  160  A    between atoms: _400  and  _402
REMARK  161  A    between atoms: _402  and  _403
REMARK  162  A    between atoms: _402  and  _405
REMARK  163  A    between atoms: _405  and  _406
REMARK  164  A    between atoms: _411  and  _412
REMARK  165  A    between atoms: _414  and  _416
REMARK  166  A    between atoms: _416  and  _417
REMARK  167  A    between atoms: _416  and  _419
REMARK  168  A    between atoms: _419  and  _420
REMARK  169  A    between atoms: _426  and  _428
REMARK  170  A    between atoms: _428  and  _429
REMARK  171  A    between atoms: _428  and  _431
REMARK  172  A    between atoms: _431  and  _432
REMARK  173  A    between atoms: _437  and  _438
REMARK  174  A    between atoms: _440  and  _442
REMARK  175  A    between atoms: _442  and  _443
REMARK  176  A    between atoms: _442  and  _445
REMARK  177  A    between atoms: _445  and  _446
REMARK  178  A    between atoms: _446  and  _447
REMARK  179  A    between atoms: _447  and  _448
REMARK  180  A    between atoms: _457  and  _459
REMARK  181  A    between atoms: _459  and  _460
REMARK  182  A    between atoms: _459  and  _462
REMARK  183  A    between atoms: _462  and  _463
REMARK  184  A    between atoms: _463  and  _464
REMARK  185  A    between atoms: _467  and  _469
REMARK  186  A    between atoms: _469  and  _470
REMARK  187  A    between atoms: _472  and  _474
REMARK  188  A    between atoms: _474  and  _475
REMARK  189  A    between atoms: _474  and  _477
REMARK  190  A    between atoms: _477  and  _478
REMARK  191  A    between atoms: _484  and  _485
REMARK  192  A    between atoms: _490  and  _492
REMARK  193  A    between atoms: _492  and  _493
REMARK  194  A    between atoms: _495  and  _497
REMARK  195  A    between atoms: _497  and  _498
REMARK  196  A    between atoms: _497  and  _500
REMARK  197  A    between atoms: _500  and  _501
REMARK  198  A    between atoms: _507  and  _509
REMARK  199  A    between atoms: _509  and  _510
REMARK  200  A    between atoms: _509  and  _512
REMARK  201  A    between atoms: _512  and  _513
REMARK  202  A    between atoms: _518  and  _520
REMARK  203  A    between atoms: _520  and  _521
REMARK  204  A    between atoms: _520  and  _523
REMARK  205  A    between atoms: _523  and  _524
REMARK  206  A    between atoms: _524  and  _525
REMARK  207  A    between atoms: _525  and  _526
REMARK  208  A    between atoms: _526  and  ZN_772
REMARK  209  A    between atoms: _528  and  _530
REMARK  210  A    between atoms: _530  and  _531
REMARK  211  A    between atoms: _534  and  _536
REMARK  212  A    between atoms: _536  and  _537
REMARK  213  A    between atoms: _539  and  _541
REMARK  214  A    between atoms: _541  and  _542
REMARK  215  A    between atoms: _541  and  _544
REMARK  216  A    between atoms: _544  and  _545
REMARK  217  A    between atoms: _548  and  _550
REMARK  218  A    between atoms: _550  and  _551
REMARK  219  A    between atoms: _554  and  _556
REMARK  220  A    between atoms: _556  and  _557
REMARK  221  A    between atoms: _556  and  _559
REMARK  222  A    between atoms: _559  and  _560
REMARK  223  A    between atoms: _563  and  _565
REMARK  224  A    between atoms: _565  and  _566
REMARK  225  A    between atoms: _565  and  _568
REMARK  226  A    between atoms: _568  and  _569
REMARK  227  A    between atoms: _569  and  _570
REMARK  228  A    between atoms: _570  and  _571
REMARK  229  A    between atoms: _571  and  _572
REMARK  230  A    between atoms: _576  and  _578
REMARK  231  A    between atoms: _578  and  _579
REMARK  232  A    between atoms: _578  and  _581
REMARK  233  A    between atoms: _581  and  _582
REMARK  234  A    between atoms: _588  and  _590
REMARK  235  A    between atoms: _590  and  _591
REMARK  236  A    between atoms: _590  and  _593
REMARK  237  A    between atoms: _593  and  _594
REMARK  238  A    between atoms: _600  and  _602
REMARK  239  A    between atoms: _602  and  _603
REMARK  240  A    between atoms: _602  and  _605
REMARK  241  A    between atoms: _605  and  _606
REMARK  242  A    between atoms: _608  and  _610
REMARK  243  A    between atoms: _610  and  _611
REMARK  244  A    between atoms: _610  and  _613
REMARK  245  A    between atoms: _616  and  _618
REMARK  246  A    between atoms: _618  and  _619
REMARK  247  A    between atoms: _618  and  _621
REMARK  248  A    between atoms: _621  and  _622
REMARK  249  A    between atoms: _622  and  _623
REMARK  250  A    between atoms: _623  and  _624
REMARK  251  A    between atoms: _624  and  _625
REMARK  252  A    between atoms: _629  and  _631
REMARK  253  A    between atoms: _631  and  _632
REMARK  254  A    between atoms: _631  and  _634
REMARK  255  A    between atoms: _634  and  _635
REMARK  256  A    between atoms: _641  and  _643
REMARK  257  A    between atoms: _643  and  _644
REMARK  258  A    between atoms: _643  and  _646
REMARK  259  A    between atoms: _646  and  _647
REMARK  260  A    between atoms: _652  and  _654
REMARK  261  A    between atoms: _654  and  _655
REMARK  262  A    between atoms: _654  and  _657
REMARK  263  A    between atoms: _657  and  _658
REMARK  264  A    between atoms: _660  and  _662
REMARK  265  A    between atoms: _662  and  _663
REMARK  266  A    between atoms: _662  and  _665
REMARK  267  A    between atoms: _665  and  _666
REMARK  268  A    between atoms: _668  and  _670
REMARK  269  A    between atoms: _670  and  _671
REMARK  270  A    between atoms: _670  and  _673
REMARK  271  A    between atoms: _677  and  _678
REMARK  272  A    between atoms: _683  and  _685
REMARK  273  A    between atoms: _685  and  _686
REMARK  274  A    between atoms: _685  and  _688
REMARK  275  A    between atoms: _688  and  _689
REMARK  276  A    between atoms: _694  and  _695
REMARK  277  A    between atoms: _697  and  _699
REMARK  278  A    between atoms: _699  and  _700
REMARK  279  A    between atoms: _699  and  _702
REMARK  280  A    between atoms: _702  and  _703
REMARK  281  A    between atoms: _703  and  _704
REMARK  282  A    between atoms: _704  and  _705
REMARK  283  A    between atoms: _714  and  _716
REMARK  284  A    between atoms: _716  and  _717
REMARK  285  A    between atoms: _716  and  _719
REMARK  286  A    between atoms: _719  and  _720
REMARK  287  A    between atoms: _725  and  _726
REMARK  288  A    between atoms: _728  and  _730
REMARK  289  A    between atoms: _730  and  _731
REMARK  290  A    between atoms: _730  and  _733
REMARK  291  A    between atoms: _733  and  _734
REMARK  292  A    between atoms: _740  and  _742
REMARK  293  A    between atoms: _742  and  _743
REMARK  294  A    between atoms: _742  and  _745
REMARK  295  A    between atoms: _745  and  _746
REMARK  296  A    between atoms: _748  and  _750
REMARK  297  A    between atoms: _750  and  _751
REMARK  298  A    between atoms: _750  and  _753
REMARK  299  A    between atoms: _753  and  _754
REMARK  300  A    between atoms: _760  and  _762
REMARK  301  A    between atoms: _762  and  _763
REMARK  302  A    between atoms: _762  and  _765
REMARK  303  A    between atoms: _765  and  _766
REMARK  304  A    between atoms: _766  and  _767
REMARK                            x       y       z     vdW  Elec       q    Type
REMARK                         _______ _______ _______ _____ _____    ______ ____
ROOT
ATOM      1  O   HOH     1      11.393 -12.643 -23.725  0.00  0.00    +0.000 OA
ENDROOT
TORSDOF 0
REMARK  Name = ../refined-set-2016/2xy9/2xy9_pocket.pdb
REMARK  304 active torsions:
REMARK  status: ('A' for Active; 'I' for Inactive)
REMARK    1  A    between atoms: _1  and  _3
REMARK    2  A    between atoms: _3  and  _4
REMARK    3  A    between atoms: _3  and  _6
REMARK    4  A    between atoms: _6  and  _7
REMARK    5  A    between atoms: _12  and  _14
REMARK    6  A    between atoms: _14  and  _15
REMARK    7  A    between atoms: _14  and  _17
REMARK    8  A    between atoms: _17  and  _18
REMARK    9  A    between atoms: _23  and  _25
REMARK   10  A    between atoms: _25  and  _26
REMARK   11  A    between atoms: _25  and  _28
REMARK   12  A    between atoms: _28  and  _29
REMARK   13  A    between atoms: _29  and  _30
REMARK   14  A    between atoms: _33  and  _35
REMARK   15  A    between atoms: _35  and  _36
REMARK   16  A    between atoms: _35  and  _38
REMARK   17  A    between atoms: _38  and  _39
REMARK   18  A    between atoms: _44  and  _45
REMARK   19  A    between atoms: _47  and  _49
REMARK   20  A    between atoms: _49  and  _50
REMARK   21  A    between atoms: _49  and  _52
REMARK   22  A    between atoms: _52  and  _53
REMARK   23  A    between atoms: _56  and  _58
REMARK   24  A    between atoms: _58  and  _59
REMARK   25  A    between atoms: _61  and  _63
REMARK   26  A    between atoms: _63  and  _64
REMARK   27  A    between atoms: _63  and  _66
REMARK   28  A    between atoms: _66  and  _67
REMARK   29  A    between atoms: _72  and  _74
REMARK   30  A    between atoms: _74  and  _75
REMARK   31  A    between atoms: _74  and  _77
REMARK   32  A    between atoms: _77  and  _78
REMARK   33  A    between atoms: _88  and  _90
REMARK   34  A    between atoms: _90  and  _91
REMARK   35  A    between atoms: _90  and  _93
REMARK   36  A    between atoms: _93  and  _94
REMARK   37  A    between atoms: _94  and  _95
REMARK   38  A    between atoms: _100  and  _102
REMARK   39  A    between atoms: _102  and  _103
REMARK   40  A    between atoms: _102  and  _105
REMARK   41  A    between atoms: _105  and  _106
REMARK   42  A    between atoms: _109  and  _111
REMARK   43  A    between atoms: _111  and  _112
REMARK   44  A    between atoms: _111  and  _114
REMARK   45  A    between atoms: _114  and  _115
REMARK   46  A    between atoms: _125  and  _127
REMARK   47  A    between atoms: _127  and  _128
REMARK   48  A    between atoms: _127  and  _130
REMARK   49  A    between atoms: _130  and  _131
REMARK   50  A    between atoms: _133  and  _135
REMARK   51  A    between atoms: _135  and  _136
REMARK   52  A    between atoms: _135  and  _138
REMARK   53  A    between atoms: _138  and  _139
REMARK   54  A    between atoms: _144  and  _146
REMARK   55  A    between atoms: _146  and  _147
REMARK   56  A    between atoms: _146  and  _149
REMARK   57  A    between atoms: _152  and  _154
REMARK   58  A    between atoms: _154  and  _155
REMARK   59  A    between atoms: _154  and  _157
REMARK   60  A    between atoms: _159  and  _161
REMARK   61  A    between atoms: _161  and  _162
REMARK   62  A    between atoms: _161  and  _164
REMARK   63  A    between atoms: _164  and  _165
REMARK   64  A    between atoms: _170  and  _172
REMARK   65  A    between atoms: _172  and  _173
REMARK   66  A    between atoms: _176  and  _178
REMARK   67  A    between atoms: _178  and  _179
REMARK   68  A    between atoms: _178  and  _181
REMARK   69  A    between atoms: _181  and  _182
REMARK   70  A    between atoms: _184  and  _186
REMARK   71  A    between atoms: _186  and  _187
REMARK   72  A    between atoms: _190  and  _192
REMARK   73  A    between atoms: _192  and  _193
REMARK   74  A    between atoms: _192  and  _195
REMARK   75  A    between atoms: _195  and  _196
REMARK   76  A    between atoms: _206  and  _208
REMARK   77  A    between atoms: _208  and  _209
REMARK   78  A    between atoms: _208  and  _211
REMARK   79  A    between atoms: _211  and  _212
REMARK   80  A    between atoms: _215  and  _217
REMARK   81  A    between atoms: _217  and  _218
REMARK   82  A    between atoms: _217  and  _220
REMARK   83  A    between atoms: _220  and  _221
REMARK   84  A    between atoms: _226  and  _227
REMARK   85  A    between atoms: _229  and  _231
REMARK   86  A    between atoms: _231  and  _232
REMARK   87  A    between atoms: _231  and  _234
REMARK   88  A    between atoms: _234  and  _235
REMARK   89  A    between atoms: _235  and  _236
REMARK   90  A    between atoms: _236  and  _237
REMARK   91  A    between atoms: _246  and  _248
REMARK   92  A    between atoms: _248  and  _249
REMARK   93  A    between atoms: _248  and  _251
REMARK   94  A    between atoms: _251  and  _252
REMARK   95  A    between atoms: _255  and  _257
REMARK   96  A    between atoms: _257  and  _258
REMARK   97  A    between atoms: _257  and  _260
REMARK   98  A    between atoms: _260  and  _261
REMARK   99  A    between atoms: _261  and  _262
REMARK  100  A    between atoms: _262  and  _263
REMARK  101  A    between atoms: _263  and  _264
REMARK  102  A    between atoms: _268  and  _270
REMARK  103  A    between atoms: _270  and  _271
REMARK  104  A    between atoms: _270  and  _273
REMARK  105  A    between atoms: _273  and  _274
REMARK  106  A    between atoms: _274  and  _275
REMARK  107  A    between atoms: _280  and  _282
REMARK  108  A    between atoms: _282  and  _283
REMARK  109  A    between atoms: _282  and  _285
REMARK  110  A    between atoms: _285  and  _286
REMARK  111  A    between atoms: _289  and  _291
REMARK  112  A    between atoms: _291  and  _292
REMARK  113  A    between atoms: _291  and  _294
REMARK  114  A    between atoms: _294  and  _295
REMARK  115  A    between atoms: _295  and  _296
REMARK  116  A    between atoms: _299  and  _301
REMARK  117  A    between atoms: _301  and  _302
REMARK  118  A    between atoms: _301  and  _304
REMARK  119  A    between atoms: _304  and  _305
REMARK  120  A    between atoms: _308  and  _310
REMARK  121  A    between atoms: _310  and  _311
REMARK  122  A    between atoms: _310  and  _313
REMARK  123  A    between atoms: _313  and  _314
REMARK  124  A    between atoms: _317  and  _319
REMARK  125  A    between atoms: _319  and  _320
REMARK  126  A    between atoms: _319  and  _322
REMARK  127  A    between atoms: _325  and  _327
REMARK  128  A    between atoms: _327  and  _328
REMARK  129  A    between atoms: _327  and  _330
REMARK  130  A    between atoms: _333  and  _335
REMARK  131  A    between atoms: _335  and  _336
REMARK  132  A    between atoms: _339  and  _341
REMARK  133  A    between atoms: _341  and  _342
REMARK  134  A    between atoms: _341  and  _344
REMARK  135  A    between atoms: _344  and  _345
REMARK  136  A    between atoms: _350  and  _352
REMARK  137  A    between atoms: _352  and  _353
REMARK  138  A    between atoms: _352  and  _355
REMARK  139  A    between atoms: _355  and  _356
REMARK  140  A    between atoms: _360  and  ZN_772
REMARK  141  A    between atoms: _361  and  _363
REMARK  142  A    between atoms: _363  and  _364
REMARK  143  A    between atoms: _363  and  _366
REMARK  144  A    between atoms: _366  and  _367
REMARK  145  A    between atoms: _367  and  _368
REMARK  146  A    between atoms: _371  and  _373
REMARK  147  A    between atoms: _373  and  _374
REMARK  148  A    between atoms: _373  and  _376
REMARK  149  A    between atoms: _376  and  _377
REMARK  150  A    between atoms: _377  and  _378
REMARK  151  A    between atoms: _380  and  _382
REMARK  152  A    between atoms: _382  and  _383
REMARK  153  A    between atoms: _382  and  _385
REMARK  154  A    between atoms: _385  and  _386
REMARK  155  A    between atoms: _390  and  ZN_772
REMARK  156  A    between atoms: _391  and  _393
REMARK  157  A    between atoms: _393  and  _394
REMARK  158  A    between atoms: _393  and  _396
REMARK  159  A    between atoms: _396  and  _397
REMARK  160  A    between atoms: _400  and  _402
REMARK  161  A    between atoms: _402  and  _403
REMARK  162  A    between atoms: _402  and  _405
REMARK  163  A    between atoms: _405  and  _406
REMARK  164  A    between atoms: _411  and  _412
REMARK  165  A    between atoms: _414  and  _416
REMARK  166  A    between atoms: _416  and  _417
REMARK  167  A    between atoms: _416  and  _419
REMARK  168  A    between atoms: _419  and  _420
REMARK  169  A    between atoms: _426  and  _428
REMARK  170  A    between atoms: _428  and  _429
REMARK  171  A    between atoms: _428  and  _431
REMARK  172  A    between atoms: _431  and  _432
REMARK  173  A    between atoms: _437  and  _438
REMARK  174  A    between atoms: _440  and  _442
REMARK  175  A    between atoms: _442  and  _443
REMARK  176  A    between atoms: _442  and  _445
REMARK  177  A    between atoms: _445  and  _446
REMARK  178  A    between atoms: _446  and  _447
REMARK  179  A    between atoms: _447  and  _448
REMARK  180  A    between atoms: _457  and  _459
REMARK  181  A    between atoms: _459  and  _460
REMARK  182  A    between atoms: _459  and  _462
REMARK  183  A    between atoms: _462  and  _463
REMARK  184  A    between atoms: _463  and  _464
REMARK  185  A    between atoms: _467  and  _469
REMARK  186  A    between atoms: _469  and  _470
REMARK  187  A    between atoms: _472  and  _474
REMARK  188  A    between atoms: _474  and  _475
REMARK  189  A    between atoms: _474  and  _477
REMARK  190  A    between atoms: _477  and  _478
REMARK  191  A    between atoms: _484  and  _485
REMARK  192  A    between atoms: _490  and  _492
REMARK  193  A    between atoms: _492  and  _493
REMARK  194  A    between atoms: _495  and  _497
REMARK  195  A    between atoms: _497  and  _498
REMARK  196  A    between atoms: _497  and  _500
REMARK  197  A    between atoms: _500  and  _501
REMARK  198  A    between atoms: _507  and  _509
REMARK  199  A    between atoms: _509  and  _510
REMARK  200  A    between atoms: _509  and  _512
REMARK  201  A    between atoms: _512  and  _513
REMARK  202  A    between atoms: _518  and  _520
REMARK  203  A    between atoms: _520  and  _521
REMARK  204  A    between atoms: _520  and  _523
REMARK  205  A    between atoms: _523  and  _524
REMARK  206  A    between atoms: _524  and  _525
REMARK  207  A    between atoms: _525  and  _526
REMARK  208  A    between atoms: _526  and  ZN_772
REMARK  209  A    between atoms: _528  and  _530
REMARK  210  A    between atoms: _530  and  _531
REMARK  211  A    between atoms: _534  and  _536
REMARK  212  A    between atoms: _536  and  _537
REMARK  213  A    between atoms: _539  and  _541
REMARK  214  A    between atoms: _541  and  _542
REMARK  215  A    between atoms: _541  and  _544
REMARK  216  A    between atoms: _544  and  _545
REMARK  217  A    between atoms: _548  and  _550
REMARK  218  A    between atoms: _550  and  _551
REMARK  219  A    between atoms: _554  and  _556
REMARK  220  A    between atoms: _556  and  _557
REMARK  221  A    between atoms: _556  and  _559
REMARK  222  A    between atoms: _559  and  _560
REMARK  223  A    between atoms: _563  and  _565
REMARK  224  A    between atoms: _565  and  _566
REMARK  225  A    between atoms: _565  and  _568
REMARK  226  A    between atoms: _568  and  _569
REMARK  227  A    between atoms: _569  and  _570
REMARK  228  A    between atoms: _570  and  _571
REMARK  229  A    between atoms: _571  and  _572
REMARK  230  A    between atoms: _576  and  _578
REMARK  231  A    between atoms: _578  and  _579
REMARK  232  A    between atoms: _578  and  _581
REMARK  233  A    between atoms: _581  and  _582
REMARK  234  A    between atoms: _588  and  _590
REMARK  235  A    between atoms: _590  and  _591
REMARK  236  A    between atoms: _590  and  _593
REMARK  237  A    between atoms: _593  and  _594
REMARK  238  A    between atoms: _600  and  _602
REMARK  239  A    between atoms: _602  and  _603
REMARK  240  A    between atoms: _602  and  _605
REMARK  241  A    between atoms: _605  and  _606
REMARK  242  A    between atoms: _608  and  _610
REMARK  243  A    between atoms: _610  and  _611
REMARK  244  A    between atoms: _610  and  _613
REMARK  245  A    between atoms: _616  and  _618
REMARK  246  A    between atoms: _618  and  _619
REMARK  247  A    between atoms: _618  and  _621
REMARK  248  A    between atoms: _621  and  _622
REMARK  249  A    between atoms: _622  and  _623
REMARK  250  A    between atoms: _623  and  _624
REMARK  251  A    between atoms: _624  and  _625
REMARK  252  A    between atoms: _629  and  _631
REMARK  253  A    between atoms: _631  and  _632
REMARK  254  A    between atoms: _631  and  _634
REMARK  255  A    between atoms: _634  and  _635
REMARK  256  A    between atoms: _641  and  _643
REMARK  257  A    between atoms: _643  and  _644
REMARK  258  A    between atoms: _643  and  _646
REMARK  259  A    between atoms: _646  and  _647
REMARK  260  A    between atoms: _652  and  _654
REMARK  261  A    between atoms: _654  and  _655
REMARK  262  A    between atoms: _654  and  _657
REMARK  263  A    between atoms: _657  and  _658
REMARK  264  A    between atoms: _660  and  _662
REMARK  265  A    between atoms: _662  and  _663
REMARK  266  A    between atoms: _662  and  _665
REMARK  267  A    between atoms: _665  and  _666
REMARK  268  A    between atoms: _668  and  _670
REMARK  269  A    between atoms: _670  and  _671
REMARK  270  A    between atoms: _670  and  _673
REMARK  271  A    between atoms: _677  and  _678
REMARK  272  A    between atoms: _683  and  _685
REMARK  273  A    between atoms: _685  and  _686
REMARK  274  A    between atoms: _685  and  _688
REMARK  275  A    between atoms: _688  and  _689
REMARK  276  A    between atoms: _694  and  _695
REMARK  277  A    between atoms: _697  and  _699
REMARK  278  A    between atoms: _699  and  _700
REMARK  279  A    between atoms: _699  and  _702
REMARK  280  A    between atoms: _702  and  _703
REMARK  281  A    between atoms: _703  and  _704
REMARK  282  A    between atoms: _704  and  _705
REMARK  283  A    between atoms: _714  and  _716
REMARK  284  A    between atoms: _716  and  _717
REMARK  285  A    between atoms: _716  and  _719
REMARK  286  A    between atoms: _719  and  _720
REMARK  287  A    between atoms: _725  and  _726
REMARK  288  A    between atoms: _728  and  _730
REMARK  289  A    between atoms: _730  and  _731
REMARK  290  A    between atoms: _730  and  _733
REMARK  291  A    between atoms: _733  and  _734
REMARK  292  A    between atoms: _740  and  _742
REMARK  293  A    between atoms: _742  and  _743
REMARK  294  A    between atoms: _742  and  _745
REMARK  295  A    between atoms: _745  and  _746
REMARK  296  A    between atoms: _748  and  _750
REMARK  297  A    between atoms: _750  and  _751
REMARK  298  A    between atoms: _750  and  _753
REMARK  299  A    between atoms: _753  and  _754
REMARK  300  A    between atoms: _760  and  _762
REMARK  301  A    between atoms: _762  and  _763
REMARK  302  A    between atoms: _762  and  _765
REMARK  303  A    between atoms: _765  and  _766
REMARK  304  A    between atoms: _766  and  _767
REMARK                            x       y       z     vdW  Elec       q    Type
REMARK                         _______ _______ _______ _____ _____    ______ ____
ROOT
ATOM      1  O   HOH     1      14.554 -10.610 -21.809  0.00  0.00    +0.000 OA
ENDROOT
TORSDOF 0
REMARK  Name = ../refined-set-2016/2xy9/2xy9_pocket.pdb
REMARK  304 active torsions:
REMARK  status: ('A' for Active; 'I' for Inactive)
REMARK    1  A    between atoms: _1  and  _3
REMARK    2  A    between atoms: _3  and  _4
REMARK    3  A    between atoms: _3  and  _6
REMARK    4  A    between atoms: _6  and  _7
REMARK    5  A    between atoms: _12  and  _14
REMARK    6  A    between atoms: _14  and  _15
REMARK    7  A    between atoms: _14  and  _17
REMARK    8  A    between atoms: _17  and  _18
REMARK    9  A    between atoms: _23  and  _25
REMARK   10  A    between atoms: _25  and  _26
REMARK   11  A    between atoms: _25  and  _28
REMARK   12  A    between atoms: _28  and  _29
REMARK   13  A    between atoms: _29  and  _30
REMARK   14  A    between atoms: _33  and  _35
REMARK   15  A    between atoms: _35  and  _36
REMARK   16  A    between atoms: _35  and  _38
REMARK   17  A    between atoms: _38  and  _39
REMARK   18  A    between atoms: _44  and  _45
REMARK   19  A    between atoms: _47  and  _49
REMARK   20  A    between atoms: _49  and  _50
REMARK   21  A    between atoms: _49  and  _52
REMARK   22  A    between atoms: _52  and  _53
REMARK   23  A    between atoms: _56  and  _58
REMARK   24  A    between atoms: _58  and  _59
REMARK   25  A    between atoms: _61  and  _63
REMARK   26  A    between atoms: _63  and  _64
REMARK   27  A    between atoms: _63  and  _66
REMARK   28  A    between atoms: _66  and  _67
REMARK   29  A    between atoms: _72  and  _74
REMARK   30  A    between atoms: _74  and  _75
REMARK   31  A    between atoms: _74  and  _77
REMARK   32  A    between atoms: _77  and  _78
REMARK   33  A    between atoms: _88  and  _90
REMARK   34  A    between atoms: _90  and  _91
REMARK   35  A    between atoms: _90  and  _93
REMARK   36  A    between atoms: _93  and  _94
REMARK   37  A    between atoms: _94  and  _95
REMARK   38  A    between atoms: _100  and  _102
REMARK   39  A    between atoms: _102  and  _103
REMARK   40  A    between atoms: _102  and  _105
REMARK   41  A    between atoms: _105  and  _106
REMARK   42  A    between atoms: _109  and  _111
REMARK   43  A    between atoms: _111  and  _112
REMARK   44  A    between atoms: _111  and  _114
REMARK   45  A    between atoms: _114  and  _115
REMARK   46  A    between atoms: _125  and  _127
REMARK   47  A    between atoms: _127  and  _128
REMARK   48  A    between atoms: _127  and  _130
REMARK   49  A    between atoms: _130  and  _131
REMARK   50  A    between atoms: _133  and  _135
REMARK   51  A    between atoms: _135  and  _136
REMARK   52  A    between atoms: _135  and  _138
REMARK   53  A    between atoms: _138  and  _139
REMARK   54  A    between atoms: _144  and  _146
REMARK   55  A    between atoms: _146  and  _147
REMARK   56  A    between atoms: _146  and  _149
REMARK   57  A    between atoms: _152  and  _154
REMARK   58  A    between atoms: _154  and  _155
REMARK   59  A    between atoms: _154  and  _157
REMARK   60  A    between atoms: _159  and  _161
REMARK   61  A    between atoms: _161  and  _162
REMARK   62  A    between atoms: _161  and  _164
REMARK   63  A    between atoms: _164  and  _165
REMARK   64  A    between atoms: _170  and  _172
REMARK   65  A    between atoms: _172  and  _173
REMARK   66  A    between atoms: _176  and  _178
REMARK   67  A    between atoms: _178  and  _179
REMARK   68  A    between atoms: _178  and  _181
REMARK   69  A    between atoms: _181  and  _182
REMARK   70  A    between atoms: _184  and  _186
REMARK   71  A    between atoms: _186  and  _187
REMARK   72  A    between atoms: _190  and  _192
REMARK   73  A    between atoms: _192  and  _193
REMARK   74  A    between atoms: _192  and  _195
REMARK   75  A    between atoms: _195  and  _196
REMARK   76  A    between atoms: _206  and  _208
REMARK   77  A    between atoms: _208  and  _209
REMARK   78  A    between atoms: _208  and  _211
REMARK   79  A    between atoms: _211  and  _212
REMARK   80  A    between atoms: _215  and  _217
REMARK   81  A    between atoms: _217  and  _218
REMARK   82  A    between atoms: _217  and  _220
REMARK   83  A    between atoms: _220  and  _221
REMARK   84  A    between atoms: _226  and  _227
REMARK   85  A    between atoms: _229  and  _231
REMARK   86  A    between atoms: _231  and  _232
REMARK   87  A    between atoms: _231  and  _234
REMARK   88  A    between atoms: _234  and  _235
REMARK   89  A    between atoms: _235  and  _236
REMARK   90  A    between atoms: _236  and  _237
REMARK   91  A    between atoms: _246  and  _248
REMARK   92  A    between atoms: _248  and  _249
REMARK   93  A    between atoms: _248  and  _251
REMARK   94  A    between atoms: _251  and  _252
REMARK   95  A    between atoms: _255  and  _257
REMARK   96  A    between atoms: _257  and  _258
REMARK   97  A    between atoms: _257  and  _260
REMARK   98  A    between atoms: _260  and  _261
REMARK   99  A    between atoms: _261  and  _262
REMARK  100  A    between atoms: _262  and  _263
REMARK  101  A    between atoms: _263  and  _264
REMARK  102  A    between atoms: _268  and  _270
REMARK  103  A    between atoms: _270  and  _271
REMARK  104  A    between atoms: _270  and  _273
REMARK  105  A    between atoms: _273  and  _274
REMARK  106  A    between atoms: _274  and  _275
REMARK  107  A    between atoms: _280  and  _282
REMARK  108  A    between atoms: _282  and  _283
REMARK  109  A    between atoms: _282  and  _285
REMARK  110  A    between atoms: _285  and  _286
REMARK  111  A    between atoms: _289  and  _291
REMARK  112  A    between atoms: _291  and  _292
REMARK  113  A    between atoms: _291  and  _294
REMARK  114  A    between atoms: _294  and  _295
REMARK  115  A    between atoms: _295  and  _296
REMARK  116  A    between atoms: _299  and  _301
REMARK  117  A    between atoms: _301  and  _302
REMARK  118  A    between atoms: _301  and  _304
REMARK  119  A    between atoms: _304  and  _305
REMARK  120  A    between atoms: _308  and  _310
REMARK  121  A    between atoms: _310  and  _311
REMARK  122  A    between atoms: _310  and  _313
REMARK  123  A    between atoms: _313  and  _314
REMARK  124  A    between atoms: _317  and  _319
REMARK  125  A    between atoms: _319  and  _320
REMARK  126  A    between atoms: _319  and  _322
REMARK  127  A    between atoms: _325  and  _327
REMARK  128  A    between atoms: _327  and  _328
REMARK  129  A    between atoms: _327  and  _330
REMARK  130  A    between atoms: _333  and  _335
REMARK  131  A    between atoms: _335  and  _336
REMARK  132  A    between atoms: _339  and  _341
REMARK  133  A    between atoms: _341  and  _342
REMARK  134  A    between atoms: _341  and  _344
REMARK  135  A    between atoms: _344  and  _345
REMARK  136  A    between atoms: _350  and  _352
REMARK  137  A    between atoms: _352  and  _353
REMARK  138  A    between atoms: _352  and  _355
REMARK  139  A    between atoms: _355  and  _356
REMARK  140  A    between atoms: _360  and  ZN_772
REMARK  141  A    between atoms: _361  and  _363
REMARK  142  A    between atoms: _363  and  _364
REMARK  143  A    between atoms: _363  and  _366
REMARK  144  A    between atoms: _366  and  _367
REMARK  145  A    between atoms: _367  and  _368
REMARK  146  A    between atoms: _371  and  _373
REMARK  147  A    between atoms: _373  and  _374
REMARK  148  A    between atoms: _373  and  _376
REMARK  149  A    between atoms: _376  and  _377
REMARK  150  A    between atoms: _377  and  _378
REMARK  151  A    between atoms: _380  and  _382
REMARK  152  A    between atoms: _382  and  _383
REMARK  153  A    between atoms: _382  and  _385
REMARK  154  A    between atoms: _385  and  _386
REMARK  155  A    between atoms: _390  and  ZN_772
REMARK  156  A    between atoms: _391  and  _393
REMARK  157  A    between atoms: _393  and  _394
REMARK  158  A    between atoms: _393  and  _396
REMARK  159  A    between atoms: _396  and  _397
REMARK  160  A    between atoms: _400  and  _402
REMARK  161  A    between atoms: _402  and  _403
REMARK  162  A    between atoms: _402  and  _405
REMARK  163  A    between atoms: _405  and  _406
REMARK  164  A    between atoms: _411  and  _412
REMARK  165  A    between atoms: _414  and  _416
REMARK  166  A    between atoms: _416  and  _417
REMARK  167  A    between atoms: _416  and  _419
REMARK  168  A    between atoms: _419  and  _420
REMARK  169  A    between atoms: _426  and  _428
REMARK  170  A    between atoms: _428  and  _429
REMARK  171  A    between atoms: _428  and  _431
REMARK  172  A    between atoms: _431  and  _432
REMARK  173  A    between atoms: _437  and  _438
REMARK  174  A    between atoms: _440  and  _442
REMARK  175  A    between atoms: _442  and  _443
REMARK  176  A    between atoms: _442  and  _445
REMARK  177  A    between atoms: _445  and  _446
REMARK  178  A    between atoms: _446  and  _447
REMARK  179  A    between atoms: _447  and  _448
REMARK  180  A    between atoms: _457  and  _459
REMARK  181  A    between atoms: _459  and  _460
REMARK  182  A    between atoms: _459  and  _462
REMARK  183  A    between atoms: _462  and  _463
REMARK  184  A    between atoms: _463  and  _464
REMARK  185  A    between atoms: _467  and  _469
REMARK  186  A    between atoms: _469  and  _470
REMARK  187  A    between atoms: _472  and  _474
REMARK  188  A    between atoms: _474  and  _475
REMARK  189  A    between atoms: _474  and  _477
REMARK  190  A    between atoms: _477  and  _478
REMARK  191  A    between atoms: _484  and  _485
REMARK  192  A    between atoms: _490  and  _492
REMARK  193  A    between atoms: _492  and  _493
REMARK  194  A    between atoms: _495  and  _497
REMARK  195  A    between atoms: _497  and  _498
REMARK  196  A    between atoms: _497  and  _500
REMARK  197  A    between atoms: _500  and  _501
REMARK  198  A    between atoms: _507  and  _509
REMARK  199  A    between atoms: _509  and  _510
REMARK  200  A    between atoms: _509  and  _512
REMARK  201  A    between atoms: _512  and  _513
REMARK  202  A    between atoms: _518  and  _520
REMARK  203  A    between atoms: _520  and  _521
REMARK  204  A    between atoms: _520  and  _523
REMARK  205  A    between atoms: _523  and  _524
REMARK  206  A    between atoms: _524  and  _525
REMARK  207  A    between atoms: _525  and  _526
REMARK  208  A    between atoms: _526  and  ZN_772
REMARK  209  A    between atoms: _528  and  _530
REMARK  210  A    between atoms: _530  and  _531
REMARK  211  A    between atoms: _534  and  _536
REMARK  212  A    between atoms: _536  and  _537
REMARK  213  A    between atoms: _539  and  _541
REMARK  214  A    between atoms: _541  and  _542
REMARK  215  A    between atoms: _541  and  _544
REMARK  216  A    between atoms: _544  and  _545
REMARK  217  A    between atoms: _548  and  _550
REMARK  218  A    between atoms: _550  and  _551
REMARK  219  A    between atoms: _554  and  _556
REMARK  220  A    between atoms: _556  and  _557
REMARK  221  A    between atoms: _556  and  _559
REMARK  222  A    between atoms: _559  and  _560
REMARK  223  A    between atoms: _563  and  _565
REMARK  224  A    between atoms: _565  and  _566
REMARK  225  A    between atoms: _565  and  _568
REMARK  226  A    between atoms: _568  and  _569
REMARK  227  A    between atoms: _569  and  _570
REMARK  228  A    between atoms: _570  and  _571
REMARK  229  A    between atoms: _571  and  _572
REMARK  230  A    between atoms: _576  and  _578
REMARK  231  A    between atoms: _578  and  _579
REMARK  232  A    between atoms: _578  and  _581
REMARK  233  A    between atoms: _581  and  _582
REMARK  234  A    between atoms: _588  and  _590
REMARK  235  A    between atoms: _590  and  _591
REMARK  236  A    between atoms: _590  and  _593
REMARK  237  A    between atoms: _593  and  _594
REMARK  238  A    between atoms: _600  and  _602
REMARK  239  A    between atoms: _602  and  _603
REMARK  240  A    between atoms: _602  and  _605
REMARK  241  A    between atoms: _605  and  _606
REMARK  242  A    between atoms: _608  and  _610
REMARK  243  A    between atoms: _610  and  _611
REMARK  244  A    between atoms: _610  and  _613
REMARK  245  A    between atoms: _616  and  _618
REMARK  246  A    between atoms: _618  and  _619
REMARK  247  A    between atoms: _618  and  _621
REMARK  248  A    between atoms: _621  and  _622
REMARK  249  A    between atoms: _622  and  _623
REMARK  250  A    between atoms: _623  and  _624
REMARK  251  A    between atoms: _624  and  _625
REMARK  252  A    between atoms: _629  and  _631
REMARK  253  A    between atoms: _631  and  _632
REMARK  254  A    between atoms: _631  and  _634
REMARK  255  A    between atoms: _634  and  _635
REMARK  256  A    between atoms: _641  and  _643
REMARK  257  A    between atoms: _643  and  _644
REMARK  258  A    between atoms: _643  and  _646
REMARK  259  A    between atoms: _646  and  _647
REMARK  260  A    between atoms: _652  and  _654
REMARK  261  A    between atoms: _654  and  _655
REMARK  262  A    between atoms: _654  and  _657
REMARK  263  A    between atoms: _657  and  _658
REMARK  264  A    between atoms: _660  and  _662
REMARK  265  A    between atoms: _662  and  _663
REMARK  266  A    between atoms: _662  and  _665
REMARK  267  A    between atoms: _665  and  _666
REMARK  268  A    between atoms: _668  and  _670
REMARK  269  A    between atoms: _670  and  _671
REMARK  270  A    between atoms: _670  and  _673
REMARK  271  A    between atoms: _677  and  _678
REMARK  272  A    between atoms: _683  and  _685
REMARK  273  A    between atoms: _685  and  _686
REMARK  274  A    between atoms: _685  and  _688
REMARK  275  A    between atoms: _688  and  _689
REMARK  276  A    between atoms: _694  and  _695
REMARK  277  A    between atoms: _697  and  _699
REMARK  278  A    between atoms: _699  and  _700
REMARK  279  A    between atoms: _699  and  _702
REMARK  280  A    between atoms: _702  and  _703
REMARK  281  A    between atoms: _703  and  _704
REMARK  282  A    between atoms: _704  and  _705
REMARK  283  A    between atoms: _714  and  _716
REMARK  284  A    between atoms: _716  and  _717
REMARK  285  A    between atoms: _716  and  _719
REMARK  286  A    between atoms: _719  and  _720
REMARK  287  A    between atoms: _725  and  _726
REMARK  288  A    between atoms: _728  and  _730
REMARK  289  A    between atoms: _730  and  _731
REMARK  290  A    between atoms: _730  and  _733
REMARK  291  A    between atoms: _733  and  _734
REMARK  292  A    between atoms: _740  and  _742
REMARK  293  A    between atoms: _742  and  _743
REMARK  294  A    between atoms: _742  and  _745
REMARK  295  A    between atoms: _745  and  _746
REMARK  296  A    between atoms: _748  and  _750
REMARK  297  A    between atoms: _750  and  _751
REMARK  298  A    between atoms: _750  and  _753
REMARK  299  A    between atoms: _753  and  _754
REMARK  300  A    between atoms: _760  and  _762
REMARK  301  A    between atoms: _762  and  _763
REMARK  302  A    between atoms: _762  and  _765
REMARK  303  A    between atoms: _765  and  _766
REMARK  304  A    between atoms: _766  and  _767
REMARK                            x       y       z     vdW  Elec       q    Type
REMARK                         _______ _______ _______ _____ _____    ______ ____
ROOT
ATOM      1  O   HOH     1      12.849 -16.192 -30.518  0.00  0.00    +0.000 OA
ENDROOT
TORSDOF 0
REMARK  Name = ../refined-set-2016/2xy9/2xy9_pocket.pdb
REMARK  304 active torsions:
REMARK  status: ('A' for Active; 'I' for Inactive)
REMARK    1  A    between atoms: _1  and  _3
REMARK    2  A    between atoms: _3  and  _4
REMARK    3  A    between atoms: _3  and  _6
REMARK    4  A    between atoms: _6  and  _7
REMARK    5  A    between atoms: _12  and  _14
REMARK    6  A    between atoms: _14  and  _15
REMARK    7  A    between atoms: _14  and  _17
REMARK    8  A    between atoms: _17  and  _18
REMARK    9  A    between atoms: _23  and  _25
REMARK   10  A    between atoms: _25  and  _26
REMARK   11  A    between atoms: _25  and  _28
REMARK   12  A    between atoms: _28  and  _29
REMARK   13  A    between atoms: _29  and  _30
REMARK   14  A    between atoms: _33  and  _35
REMARK   15  A    between atoms: _35  and  _36
REMARK   16  A    between atoms: _35  and  _38
REMARK   17  A    between atoms: _38  and  _39
REMARK   18  A    between atoms: _44  and  _45
REMARK   19  A    between atoms: _47  and  _49
REMARK   20  A    between atoms: _49  and  _50
REMARK   21  A    between atoms: _49  and  _52
REMARK   22  A    between atoms: _52  and  _53
REMARK   23  A    between atoms: _56  and  _58
REMARK   24  A    between atoms: _58  and  _59
REMARK   25  A    between atoms: _61  and  _63
REMARK   26  A    between atoms: _63  and  _64
REMARK   27  A    between atoms: _63  and  _66
REMARK   28  A    between atoms: _66  and  _67
REMARK   29  A    between atoms: _72  and  _74
REMARK   30  A    between atoms: _74  and  _75
REMARK   31  A    between atoms: _74  and  _77
REMARK   32  A    between atoms: _77  and  _78
REMARK   33  A    between atoms: _88  and  _90
REMARK   34  A    between atoms: _90  and  _91
REMARK   35  A    between atoms: _90  and  _93
REMARK   36  A    between atoms: _93  and  _94
REMARK   37  A    between atoms: _94  and  _95
REMARK   38  A    between atoms: _100  and  _102
REMARK   39  A    between atoms: _102  and  _103
REMARK   40  A    between atoms: _102  and  _105
REMARK   41  A    between atoms: _105  and  _106
REMARK   42  A    between atoms: _109  and  _111
REMARK   43  A    between atoms: _111  and  _112
REMARK   44  A    between atoms: _111  and  _114
REMARK   45  A    between atoms: _114  and  _115
REMARK   46  A    between atoms: _125  and  _127
REMARK   47  A    between atoms: _127  and  _128
REMARK   48  A    between atoms: _127  and  _130
REMARK   49  A    between atoms: _130  and  _131
REMARK   50  A    between atoms: _133  and  _135
REMARK   51  A    between atoms: _135  and  _136
REMARK   52  A    between atoms: _135  and  _138
REMARK   53  A    between atoms: _138  and  _139
REMARK   54  A    between atoms: _144  and  _146
REMARK   55  A    between atoms: _146  and  _147
REMARK   56  A    between atoms: _146  and  _149
REMARK   57  A    between atoms: _152  and  _154
REMARK   58  A    between atoms: _154  and  _155
REMARK   59  A    between atoms: _154  and  _157
REMARK   60  A    between atoms: _159  and  _161
REMARK   61  A    between atoms: _161  and  _162
REMARK   62  A    between atoms: _161  and  _164
REMARK   63  A    between atoms: _164  and  _165
REMARK   64  A    between atoms: _170  and  _172
REMARK   65  A    between atoms: _172  and  _173
REMARK   66  A    between atoms: _176  and  _178
REMARK   67  A    between atoms: _178  and  _179
REMARK   68  A    between atoms: _178  and  _181
REMARK   69  A    between atoms: _181  and  _182
REMARK   70  A    between atoms: _184  and  _186
REMARK   71  A    between atoms: _186  and  _187
REMARK   72  A    between atoms: _190  and  _192
REMARK   73  A    between atoms: _192  and  _193
REMARK   74  A    between atoms: _192  and  _195
REMARK   75  A    between atoms: _195  and  _196
REMARK   76  A    between atoms: _206  and  _208
REMARK   77  A    between atoms: _208  and  _209
REMARK   78  A    between atoms: _208  and  _211
REMARK   79  A    between atoms: _211  and  _212
REMARK   80  A    between atoms: _215  and  _217
REMARK   81  A    between atoms: _217  and  _218
REMARK   82  A    between atoms: _217  and  _220
REMARK   83  A    between atoms: _220  and  _221
REMARK   84  A    between atoms: _226  and  _227
REMARK   85  A    between atoms: _229  and  _231
REMARK   86  A    between atoms: _231  and  _232
REMARK   87  A    between atoms: _231  and  _234
REMARK   88  A    between atoms: _234  and  _235
REMARK   89  A    between atoms: _235  and  _236
REMARK   90  A    between atoms: _236  and  _237
REMARK   91  A    between atoms: _246  and  _248
REMARK   92  A    between atoms: _248  and  _249
REMARK   93  A    between atoms: _248  and  _251
REMARK   94  A    between atoms: _251  and  _252
REMARK   95  A    between atoms: _255  and  _257
REMARK   96  A    between atoms: _257  and  _258
REMARK   97  A    between atoms: _257  and  _260
REMARK   98  A    between atoms: _260  and  _261
REMARK   99  A    between atoms: _261  and  _262
REMARK  100  A    between atoms: _262  and  _263
REMARK  101  A    between atoms: _263  and  _264
REMARK  102  A    between atoms: _268  and  _270
REMARK  103  A    between atoms: _270  and  _271
REMARK  104  A    between atoms: _270  and  _273
REMARK  105  A    between atoms: _273  and  _274
REMARK  106  A    between atoms: _274  and  _275
REMARK  107  A    between atoms: _280  and  _282
REMARK  108  A    between atoms: _282  and  _283
REMARK  109  A    between atoms: _282  and  _285
REMARK  110  A    between atoms: _285  and  _286
REMARK  111  A    between atoms: _289  and  _291
REMARK  112  A    between atoms: _291  and  _292
REMARK  113  A    between atoms: _291  and  _294
REMARK  114  A    between atoms: _294  and  _295
REMARK  115  A    between atoms: _295  and  _296
REMARK  116  A    between atoms: _299  and  _301
REMARK  117  A    between atoms: _301  and  _302
REMARK  118  A    between atoms: _301  and  _304
REMARK  119  A    between atoms: _304  and  _305
REMARK  120  A    between atoms: _308  and  _310
REMARK  121  A    between atoms: _310  and  _311
REMARK  122  A    between atoms: _310  and  _313
REMARK  123  A    between atoms: _313  and  _314
REMARK  124  A    between atoms: _317  and  _319
REMARK  125  A    between atoms: _319  and  _320
REMARK  126  A    between atoms: _319  and  _322
REMARK  127  A    between atoms: _325  and  _327
REMARK  128  A    between atoms: _327  and  _328
REMARK  129  A    between atoms: _327  and  _330
REMARK  130  A    between atoms: _333  and  _335
REMARK  131  A    between atoms: _335  and  _336
REMARK  132  A    between atoms: _339  and  _341
REMARK  133  A    between atoms: _341  and  _342
REMARK  134  A    between atoms: _341  and  _344
REMARK  135  A    between atoms: _344  and  _345
REMARK  136  A    between atoms: _350  and  _352
REMARK  137  A    between atoms: _352  and  _353
REMARK  138  A    between atoms: _352  and  _355
REMARK  139  A    between atoms: _355  and  _356
REMARK  140  A    between atoms: _360  and  ZN_772
REMARK  141  A    between atoms: _361  and  _363
REMARK  142  A    between atoms: _363  and  _364
REMARK  143  A    between atoms: _363  and  _366
REMARK  144  A    between atoms: _366  and  _367
REMARK  145  A    between atoms: _367  and  _368
REMARK  146  A    between atoms: _371  and  _373
REMARK  147  A    between atoms: _373  and  _374
REMARK  148  A    between atoms: _373  and  _376
REMARK  149  A    between atoms: _376  and  _377
REMARK  150  A    between atoms: _377  and  _378
REMARK  151  A    between atoms: _380  and  _382
REMARK  152  A    between atoms: _382  and  _383
REMARK  153  A    between atoms: _382  and  _385
REMARK  154  A    between atoms: _385  and  _386
REMARK  155  A    between atoms: _390  and  ZN_772
REMARK  156  A    between atoms: _391  and  _393
REMARK  157  A    between atoms: _393  and  _394
REMARK  158  A    between atoms: _393  and  _396
REMARK  159  A    between atoms: _396  and  _397
REMARK  160  A    between atoms: _400  and  _402
REMARK  161  A    between atoms: _402  and  _403
REMARK  162  A    between atoms: _402  and  _405
REMARK  163  A    between atoms: _405  and  _406
REMARK  164  A    between atoms: _411  and  _412
REMARK  165  A    between atoms: _414  and  _416
REMARK  166  A    between atoms: _416  and  _417
REMARK  167  A    between atoms: _416  and  _419
REMARK  168  A    between atoms: _419  and  _420
REMARK  169  A    between atoms: _426  and  _428
REMARK  170  A    between atoms: _428  and  _429
REMARK  171  A    between atoms: _428  and  _431
REMARK  172  A    between atoms: _431  and  _432
REMARK  173  A    between atoms: _437  and  _438
REMARK  174  A    between atoms: _440  and  _442
REMARK  175  A    between atoms: _442  and  _443
REMARK  176  A    between atoms: _442  and  _445
REMARK  177  A    between atoms: _445  and  _446
REMARK  178  A    between atoms: _446  and  _447
REMARK  179  A    between atoms: _447  and  _448
REMARK  180  A    between atoms: _457  and  _459
REMARK  181  A    between atoms: _459  and  _460
REMARK  182  A    between atoms: _459  and  _462
REMARK  183  A    between atoms: _462  and  _463
REMARK  184  A    between atoms: _463  and  _464
REMARK  185  A    between atoms: _467  and  _469
REMARK  186  A    between atoms: _469  and  _470
REMARK  187  A    between atoms: _472  and  _474
REMARK  188  A    between atoms: _474  and  _475
REMARK  189  A    between atoms: _474  and  _477
REMARK  190  A    between atoms: _477  and  _478
REMARK  191  A    between atoms: _484  and  _485
REMARK  192  A    between atoms: _490  and  _492
REMARK  193  A    between atoms: _492  and  _493
REMARK  194  A    between atoms: _495  and  _497
REMARK  195  A    between atoms: _497  and  _498
REMARK  196  A    between atoms: _497  and  _500
REMARK  197  A    between atoms: _500  and  _501
REMARK  198  A    between atoms: _507  and  _509
REMARK  199  A    between atoms: _509  and  _510
REMARK  200  A    between atoms: _509  and  _512
REMARK  201  A    between atoms: _512  and  _513
REMARK  202  A    between atoms: _518  and  _520
REMARK  203  A    between atoms: _520  and  _521
REMARK  204  A    between atoms: _520  and  _523
REMARK  205  A    between atoms: _523  and  _524
REMARK  206  A    between atoms: _524  and  _525
REMARK  207  A    between atoms: _525  and  _526
REMARK  208  A    between atoms: _526  and  ZN_772
REMARK  209  A    between atoms: _528  and  _530
REMARK  210  A    between atoms: _530  and  _531
REMARK  211  A    between atoms: _534  and  _536
REMARK  212  A    between atoms: _536  and  _537
REMARK  213  A    between atoms: _539  and  _541
REMARK  214  A    between atoms: _541  and  _542
REMARK  215  A    between atoms: _541  and  _544
REMARK  216  A    between atoms: _544  and  _545
REMARK  217  A    between atoms: _548  and  _550
REMARK  218  A    between atoms: _550  and  _551
REMARK  219  A    between atoms: _554  and  _556
REMARK  220  A    between atoms: _556  and  _557
REMARK  221  A    between atoms: _556  and  _559
REMARK  222  A    between atoms: _559  and  _560
REMARK  223  A    between atoms: _563  and  _565
REMARK  224  A    between atoms: _565  and  _566
REMARK  225  A    between atoms: _565  and  _568
REMARK  226  A    between atoms: _568  and  _569
REMARK  227  A    between atoms: _569  and  _570
REMARK  228  A    between atoms: _570  and  _571
REMARK  229  A    between atoms: _571  and  _572
REMARK  230  A    between atoms: _576  and  _578
REMARK  231  A    between atoms: _578  and  _579
REMARK  232  A    between atoms: _578  and  _581
REMARK  233  A    between atoms: _581  and  _582
REMARK  234  A    between atoms: _588  and  _590
REMARK  235  A    between atoms: _590  and  _591
REMARK  236  A    between atoms: _590  and  _593
REMARK  237  A    between atoms: _593  and  _594
REMARK  238  A    between atoms: _600  and  _602
REMARK  239  A    between atoms: _602  and  _603
REMARK  240  A    between atoms: _602  and  _605
REMARK  241  A    between atoms: _605  and  _606
REMARK  242  A    between atoms: _608  and  _610
REMARK  243  A    between atoms: _610  and  _611
REMARK  244  A    between atoms: _610  and  _613
REMARK  245  A    between atoms: _616  and  _618
REMARK  246  A    between atoms: _618  and  _619
REMARK  247  A    between atoms: _618  and  _621
REMARK  248  A    between atoms: _621  and  _622
REMARK  249  A    between atoms: _622  and  _623
REMARK  250  A    between atoms: _623  and  _624
REMARK  251  A    between atoms: _624  and  _625
REMARK  252  A    between atoms: _629  and  _631
REMARK  253  A    between atoms: _631  and  _632
REMARK  254  A    between atoms: _631  and  _634
REMARK  255  A    between atoms: _634  and  _635
REMARK  256  A    between atoms: _641  and  _643
REMARK  257  A    between atoms: _643  and  _644
REMARK  258  A    between atoms: _643  and  _646
REMARK  259  A    between atoms: _646  and  _647
REMARK  260  A    between atoms: _652  and  _654
REMARK  261  A    between atoms: _654  and  _655
REMARK  262  A    between atoms: _654  and  _657
REMARK  263  A    between atoms: _657  and  _658
REMARK  264  A    between atoms: _660  and  _662
REMARK  265  A    between atoms: _662  and  _663
REMARK  266  A    between atoms: _662  and  _665
REMARK  267  A    between atoms: _665  and  _666
REMARK  268  A    between atoms: _668  and  _670
REMARK  269  A    between atoms: _670  and  _671
REMARK  270  A    between atoms: _670  and  _673
REMARK  271  A    between atoms: _677  and  _678
REMARK  272  A    between atoms: _683  and  _685
REMARK  273  A    between atoms: _685  and  _686
REMARK  274  A    between atoms: _685  and  _688
REMARK  275  A    between atoms: _688  and  _689
REMARK  276  A    between atoms: _694  and  _695
REMARK  277  A    between atoms: _697  and  _699
REMARK  278  A    between atoms: _699  and  _700
REMARK  279  A    between atoms: _699  and  _702
REMARK  280  A    between atoms: _702  and  _703
REMARK  281  A    between atoms: _703  and  _704
REMARK  282  A    between atoms: _704  and  _705
REMARK  283  A    between atoms: _714  and  _716
REMARK  284  A    between atoms: _716  and  _717
REMARK  285  A    between atoms: _716  and  _719
REMARK  286  A    between atoms: _719  and  _720
REMARK  287  A    between atoms: _725  and  _726
REMARK  288  A    between atoms: _728  and  _730
REMARK  289  A    between atoms: _730  and  _731
REMARK  290  A    between atoms: _730  and  _733
REMARK  291  A    between atoms: _733  and  _734
REMARK  292  A    between atoms: _740  and  _742
REMARK  293  A    between atoms: _742  and  _743
REMARK  294  A    between atoms: _742  and  _745
REMARK  295  A    between atoms: _745  and  _746
REMARK  296  A    between atoms: _748  and  _750
REMARK  297  A    between atoms: _750  and  _751
REMARK  298  A    between atoms: _750  and  _753
REMARK  299  A    between atoms: _753  and  _754
REMARK  300  A    between atoms: _760  and  _762
REMARK  301  A    between atoms: _762  and  _763
REMARK  302  A    between atoms: _762  and  _765
REMARK  303  A    between atoms: _765  and  _766
REMARK  304  A    between atoms: _766  and  _767
REMARK                            x       y       z     vdW  Elec       q    Type
REMARK                         _______ _______ _______ _____ _____    ______ ____
ROOT
ATOM      1  O   HOH     1      22.416 -11.207 -33.009  0.00  0.00    +0.000 OA
ENDROOT
TORSDOF 0
REMARK  Name = ../refined-set-2016/2xy9/2xy9_pocket.pdb
REMARK  304 active torsions:
REMARK  status: ('A' for Active; 'I' for Inactive)
REMARK    1  A    between atoms: _1  and  _3
REMARK    2  A    between atoms: _3  and  _4
REMARK    3  A    between atoms: _3  and  _6
REMARK    4  A    between atoms: _6  and  _7
REMARK    5  A    between atoms: _12  and  _14
REMARK    6  A    between atoms: _14  and  _15
REMARK    7  A    between atoms: _14  and  _17
REMARK    8  A    between atoms: _17  and  _18
REMARK    9  A    between atoms: _23  and  _25
REMARK   10  A    between atoms: _25  and  _26
REMARK   11  A    between atoms: _25  and  _28
REMARK   12  A    between atoms: _28  and  _29
REMARK   13  A    between atoms: _29  and  _30
REMARK   14  A    between atoms: _33  and  _35
REMARK   15  A    between atoms: _35  and  _36
REMARK   16  A    between atoms: _35  and  _38
REMARK   17  A    between atoms: _38  and  _39
REMARK   18  A    between atoms: _44  and  _45
REMARK   19  A    between atoms: _47  and  _49
REMARK   20  A    between atoms: _49  and  _50
REMARK   21  A    between atoms: _49  and  _52
REMARK   22  A    between atoms: _52  and  _53
REMARK   23  A    between atoms: _56  and  _58
REMARK   24  A    between atoms: _58  and  _59
REMARK   25  A    between atoms: _61  and  _63
REMARK   26  A    between atoms: _63  and  _64
REMARK   27  A    between atoms: _63  and  _66
REMARK   28  A    between atoms: _66  and  _67
REMARK   29  A    between atoms: _72  and  _74
REMARK   30  A    between atoms: _74  and  _75
REMARK   31  A    between atoms: _74  and  _77
REMARK   32  A    between atoms: _77  and  _78
REMARK   33  A    between atoms: _88  and  _90
REMARK   34  A    between atoms: _90  and  _91
REMARK   35  A    between atoms: _90  and  _93
REMARK   36  A    between atoms: _93  and  _94
REMARK   37  A    between atoms: _94  and  _95
REMARK   38  A    between atoms: _100  and  _102
REMARK   39  A    between atoms: _102  and  _103
REMARK   40  A    between atoms: _102  and  _105
REMARK   41  A    between atoms: _105  and  _106
REMARK   42  A    between atoms: _109  and  _111
REMARK   43  A    between atoms: _111  and  _112
REMARK   44  A    between atoms: _111  and  _114
REMARK   45  A    between atoms: _114  and  _115
REMARK   46  A    between atoms: _125  and  _127
REMARK   47  A    between atoms: _127  and  _128
REMARK   48  A    between atoms: _127  and  _130
REMARK   49  A    between atoms: _130  and  _131
REMARK   50  A    between atoms: _133  and  _135
REMARK   51  A    between atoms: _135  and  _136
REMARK   52  A    between atoms: _135  and  _138
REMARK   53  A    between atoms: _138  and  _139
REMARK   54  A    between atoms: _144  and  _146
REMARK   55  A    between atoms: _146  and  _147
REMARK   56  A    between atoms: _146  and  _149
REMARK   57  A    between atoms: _152  and  _154
REMARK   58  A    between atoms: _154  and  _155
REMARK   59  A    between atoms: _154  and  _157
REMARK   60  A    between atoms: _159  and  _161
REMARK   61  A    between atoms: _161  and  _162
REMARK   62  A    between atoms: _161  and  _164
REMARK   63  A    between atoms: _164  and  _165
REMARK   64  A    between atoms: _170  and  _172
REMARK   65  A    between atoms: _172  and  _173
REMARK   66  A    between atoms: _176  and  _178
REMARK   67  A    between atoms: _178  and  _179
REMARK   68  A    between atoms: _178  and  _181
REMARK   69  A    between atoms: _181  and  _182
REMARK   70  A    between atoms: _184  and  _186
REMARK   71  A    between atoms: _186  and  _187
REMARK   72  A    between atoms: _190  and  _192
REMARK   73  A    between atoms: _192  and  _193
REMARK   74  A    between atoms: _192  and  _195
REMARK   75  A    between atoms: _195  and  _196
REMARK   76  A    between atoms: _206  and  _208
REMARK   77  A    between atoms: _208  and  _209
REMARK   78  A    between atoms: _208  and  _211
REMARK   79  A    between atoms: _211  and  _212
REMARK   80  A    between atoms: _215  and  _217
REMARK   81  A    between atoms: _217  and  _218
REMARK   82  A    between atoms: _217  and  _220
REMARK   83  A    between atoms: _220  and  _221
REMARK   84  A    between atoms: _226  and  _227
REMARK   85  A    between atoms: _229  and  _231
REMARK   86  A    between atoms: _231  and  _232
REMARK   87  A    between atoms: _231  and  _234
REMARK   88  A    between atoms: _234  and  _235
REMARK   89  A    between atoms: _235  and  _236
REMARK   90  A    between atoms: _236  and  _237
REMARK   91  A    between atoms: _246  and  _248
REMARK   92  A    between atoms: _248  and  _249
REMARK   93  A    between atoms: _248  and  _251
REMARK   94  A    between atoms: _251  and  _252
REMARK   95  A    between atoms: _255  and  _257
REMARK   96  A    between atoms: _257  and  _258
REMARK   97  A    between atoms: _257  and  _260
REMARK   98  A    between atoms: _260  and  _261
REMARK   99  A    between atoms: _261  and  _262
REMARK  100  A    between atoms: _262  and  _263
REMARK  101  A    between atoms: _263  and  _264
REMARK  102  A    between atoms: _268  and  _270
REMARK  103  A    between atoms: _270  and  _271
REMARK  104  A    between atoms: _270  and  _273
REMARK  105  A    between atoms: _273  and  _274
REMARK  106  A    between atoms: _274  and  _275
REMARK  107  A    between atoms: _280  and  _282
REMARK  108  A    between atoms: _282  and  _283
REMARK  109  A    between atoms: _282  and  _285
REMARK  110  A    between atoms: _285  and  _286
REMARK  111  A    between atoms: _289  and  _291
REMARK  112  A    between atoms: _291  and  _292
REMARK  113  A    between atoms: _291  and  _294
REMARK  114  A    between atoms: _294  and  _295
REMARK  115  A    between atoms: _295  and  _296
REMARK  116  A    between atoms: _299  and  _301
REMARK  117  A    between atoms: _301  and  _302
REMARK  118  A    between atoms: _301  and  _304
REMARK  119  A    between atoms: _304  and  _305
REMARK  120  A    between atoms: _308  and  _310
REMARK  121  A    between atoms: _310  and  _311
REMARK  122  A    between atoms: _310  and  _313
REMARK  123  A    between atoms: _313  and  _314
REMARK  124  A    between atoms: _317  and  _319
REMARK  125  A    between atoms: _319  and  _320
REMARK  126  A    between atoms: _319  and  _322
REMARK  127  A    between atoms: _325  and  _327
REMARK  128  A    between atoms: _327  and  _328
REMARK  129  A    between atoms: _327  and  _330
REMARK  130  A    between atoms: _333  and  _335
REMARK  131  A    between atoms: _335  and  _336
REMARK  132  A    between atoms: _339  and  _341
REMARK  133  A    between atoms: _341  and  _342
REMARK  134  A    between atoms: _341  and  _344
REMARK  135  A    between atoms: _344  and  _345
REMARK  136  A    between atoms: _350  and  _352
REMARK  137  A    between atoms: _352  and  _353
REMARK  138  A    between atoms: _352  and  _355
REMARK  139  A    between atoms: _355  and  _356
REMARK  140  A    between atoms: _360  and  ZN_772
REMARK  141  A    between atoms: _361  and  _363
REMARK  142  A    between atoms: _363  and  _364
REMARK  143  A    between atoms: _363  and  _366
REMARK  144  A    between atoms: _366  and  _367
REMARK  145  A    between atoms: _367  and  _368
REMARK  146  A    between atoms: _371  and  _373
REMARK  147  A    between atoms: _373  and  _374
REMARK  148  A    between atoms: _373  and  _376
REMARK  149  A    between atoms: _376  and  _377
REMARK  150  A    between atoms: _377  and  _378
REMARK  151  A    between atoms: _380  and  _382
REMARK  152  A    between atoms: _382  and  _383
REMARK  153  A    between atoms: _382  and  _385
REMARK  154  A    between atoms: _385  and  _386
REMARK  155  A    between atoms: _390  and  ZN_772
REMARK  156  A    between atoms: _391  and  _393
REMARK  157  A    between atoms: _393  and  _394
REMARK  158  A    between atoms: _393  and  _396
REMARK  159  A    between atoms: _396  and  _397
REMARK  160  A    between atoms: _400  and  _402
REMARK  161  A    between atoms: _402  and  _403
REMARK  162  A    between atoms: _402  and  _405
REMARK  163  A    between atoms: _405  and  _406
REMARK  164  A    between atoms: _411  and  _412
REMARK  165  A    between atoms: _414  and  _416
REMARK  166  A    between atoms: _416  and  _417
REMARK  167  A    between atoms: _416  and  _419
REMARK  168  A    between atoms: _419  and  _420
REMARK  169  A    between atoms: _426  and  _428
REMARK  170  A    between atoms: _428  and  _429
REMARK  171  A    between atoms: _428  and  _431
REMARK  172  A    between atoms: _431  and  _432
REMARK  173  A    between atoms: _437  and  _438
REMARK  174  A    between atoms: _440  and  _442
REMARK  175  A    between atoms: _442  and  _443
REMARK  176  A    between atoms: _442  and  _445
REMARK  177  A    between atoms: _445  and  _446
REMARK  178  A    between atoms: _446  and  _447
REMARK  179  A    between atoms: _447  and  _448
REMARK  180  A    between atoms: _457  and  _459
REMARK  181  A    between atoms: _459  and  _460
REMARK  182  A    between atoms: _459  and  _462
REMARK  183  A    between atoms: _462  and  _463
REMARK  184  A    between atoms: _463  and  _464
REMARK  185  A    between atoms: _467  and  _469
REMARK  186  A    between atoms: _469  and  _470
REMARK  187  A    between atoms: _472  and  _474
REMARK  188  A    between atoms: _474  and  _475
REMARK  189  A    between atoms: _474  and  _477
REMARK  190  A    between atoms: _477  and  _478
REMARK  191  A    between atoms: _484  and  _485
REMARK  192  A    between atoms: _490  and  _492
REMARK  193  A    between atoms: _492  and  _493
REMARK  194  A    between atoms: _495  and  _497
REMARK  195  A    between atoms: _497  and  _498
REMARK  196  A    between atoms: _497  and  _500
REMARK  197  A    between atoms: _500  and  _501
REMARK  198  A    between atoms: _507  and  _509
REMARK  199  A    between atoms: _509  and  _510
REMARK  200  A    between atoms: _509  and  _512
REMARK  201  A    between atoms: _512  and  _513
REMARK  202  A    between atoms: _518  and  _520
REMARK  203  A    between atoms: _520  and  _521
REMARK  204  A    between atoms: _520  and  _523
REMARK  205  A    between atoms: _523  and  _524
REMARK  206  A    between atoms: _524  and  _525
REMARK  207  A    between atoms: _525  and  _526
REMARK  208  A    between atoms: _526  and  ZN_772
REMARK  209  A    between atoms: _528  and  _530
REMARK  210  A    between atoms: _530  and  _531
REMARK  211  A    between atoms: _534  and  _536
REMARK  212  A    between atoms: _536  and  _537
REMARK  213  A    between atoms: _539  and  _541
REMARK  214  A    between atoms: _541  and  _542
REMARK  215  A    between atoms: _541  and  _544
REMARK  216  A    between atoms: _544  and  _545
REMARK  217  A    between atoms: _548  and  _550
REMARK  218  A    between atoms: _550  and  _551
REMARK  219  A    between atoms: _554  and  _556
REMARK  220  A    between atoms: _556  and  _557
REMARK  221  A    between atoms: _556  and  _559
REMARK  222  A    between atoms: _559  and  _560
REMARK  223  A    between atoms: _563  and  _565
REMARK  224  A    between atoms: _565  and  _566
REMARK  225  A    between atoms: _565  and  _568
REMARK  226  A    between atoms: _568  and  _569
REMARK  227  A    between atoms: _569  and  _570
REMARK  228  A    between atoms: _570  and  _571
REMARK  229  A    between atoms: _571  and  _572
REMARK  230  A    between atoms: _576  and  _578
REMARK  231  A    between atoms: _578  and  _579
REMARK  232  A    between atoms: _578  and  _581
REMARK  233  A    between atoms: _581  and  _582
REMARK  234  A    between atoms: _588  and  _590
REMARK  235  A    between atoms: _590  and  _591
REMARK  236  A    between atoms: _590  and  _593
REMARK  237  A    between atoms: _593  and  _594
REMARK  238  A    between atoms: _600  and  _602
REMARK  239  A    between atoms: _602  and  _603
REMARK  240  A    between atoms: _602  and  _605
REMARK  241  A    between atoms: _605  and  _606
REMARK  242  A    between atoms: _608  and  _610
REMARK  243  A    between atoms: _610  and  _611
REMARK  244  A    between atoms: _610  and  _613
REMARK  245  A    between atoms: _616  and  _618
REMARK  246  A    between atoms: _618  and  _619
REMARK  247  A    between atoms: _618  and  _621
REMARK  248  A    between atoms: _621  and  _622
REMARK  249  A    between atoms: _622  and  _623
REMARK  250  A    between atoms: _623  and  _624
REMARK  251  A    between atoms: _624  and  _625
REMARK  252  A    between atoms: _629  and  _631
REMARK  253  A    between atoms: _631  and  _632
REMARK  254  A    between atoms: _631  and  _634
REMARK  255  A    between atoms: _634  and  _635
REMARK  256  A    between atoms: _641  and  _643
REMARK  257  A    between atoms: _643  and  _644
REMARK  258  A    between atoms: _643  and  _646
REMARK  259  A    between atoms: _646  and  _647
REMARK  260  A    between atoms: _652  and  _654
REMARK  261  A    between atoms: _654  and  _655
REMARK  262  A    between atoms: _654  and  _657
REMARK  263  A    between atoms: _657  and  _658
REMARK  264  A    between atoms: _660  and  _662
REMARK  265  A    between atoms: _662  and  _663
REMARK  266  A    between atoms: _662  and  _665
REMARK  267  A    between atoms: _665  and  _666
REMARK  268  A    between atoms: _668  and  _670
REMARK  269  A    between atoms: _670  and  _671
REMARK  270  A    between atoms: _670  and  _673
REMARK  271  A    between atoms: _677  and  _678
REMARK  272  A    between atoms: _683  and  _685
REMARK  273  A    between atoms: _685  and  _686
REMARK  274  A    between atoms: _685  and  _688
REMARK  275  A    between atoms: _688  and  _689
REMARK  276  A    between atoms: _694  and  _695
REMARK  277  A    between atoms: _697  and  _699
REMARK  278  A    between atoms: _699  and  _700
REMARK  279  A    between atoms: _699  and  _702
REMARK  280  A    between atoms: _702  and  _703
REMARK  281  A    between atoms: _703  and  _704
REMARK  282  A    between atoms: _704  and  _705
REMARK  283  A    between atoms: _714  and  _716
REMARK  284  A    between atoms: _716  and  _717
REMARK  285  A    between atoms: _716  and  _719
REMARK  286  A    between atoms: _719  and  _720
REMARK  287  A    between atoms: _725  and  _726
REMARK  288  A    between atoms: _728  and  _730
REMARK  289  A    between atoms: _730  and  _731
REMARK  290  A    between atoms: _730  and  _733
REMARK  291  A    between atoms: _733  and  _734
REMARK  292  A    between atoms: _740  and  _742
REMARK  293  A    between atoms: _742  and  _743
REMARK  294  A    between atoms: _742  and  _745
REMARK  295  A    between atoms: _745  and  _746
REMARK  296  A    between atoms: _748  and  _750
REMARK  297  A    between atoms: _750  and  _751
REMARK  298  A    between atoms: _750  and  _753
REMARK  299  A    between atoms: _753  and  _754
REMARK  300  A    between atoms: _760  and  _762
REMARK  301  A    between atoms: _762  and  _763
REMARK  302  A    between atoms: _762  and  _765
REMARK  303  A    between atoms: _765  and  _766
REMARK  304  A    between atoms: _766  and  _767
REMARK                            x       y       z     vdW  Elec       q    Type
REMARK                         _______ _______ _______ _____ _____    ______ ____
ROOT
ATOM      1  O   HOH     1       5.732  -0.586 -11.715  0.00  0.00    +0.000 OA
ENDROOT
TORSDOF 0
REMARK  Name = ../refined-set-2016/2xy9/2xy9_pocket.pdb
REMARK  304 active torsions:
REMARK  status: ('A' for Active; 'I' for Inactive)
REMARK    1  A    between atoms: _1  and  _3
REMARK    2  A    between atoms: _3  and  _4
REMARK    3  A    between atoms: _3  and  _6
REMARK    4  A    between atoms: _6  and  _7
REMARK    5  A    between atoms: _12  and  _14
REMARK    6  A    between atoms: _14  and  _15
REMARK    7  A    between atoms: _14  and  _17
REMARK    8  A    between atoms: _17  and  _18
REMARK    9  A    between atoms: _23  and  _25
REMARK   10  A    between atoms: _25  and  _26
REMARK   11  A    between atoms: _25  and  _28
REMARK   12  A    between atoms: _28  and  _29
REMARK   13  A    between atoms: _29  and  _30
REMARK   14  A    between atoms: _33  and  _35
REMARK   15  A    between atoms: _35  and  _36
REMARK   16  A    between atoms: _35  and  _38
REMARK   17  A    between atoms: _38  and  _39
REMARK   18  A    between atoms: _44  and  _45
REMARK   19  A    between atoms: _47  and  _49
REMARK   20  A    between atoms: _49  and  _50
REMARK   21  A    between atoms: _49  and  _52
REMARK   22  A    between atoms: _52  and  _53
REMARK   23  A    between atoms: _56  and  _58
REMARK   24  A    between atoms: _58  and  _59
REMARK   25  A    between atoms: _61  and  _63
REMARK   26  A    between atoms: _63  and  _64
REMARK   27  A    between atoms: _63  and  _66
REMARK   28  A    between atoms: _66  and  _67
REMARK   29  A    between atoms: _72  and  _74
REMARK   30  A    between atoms: _74  and  _75
REMARK   31  A    between atoms: _74  and  _77
REMARK   32  A    between atoms: _77  and  _78
REMARK   33  A    between atoms: _88  and  _90
REMARK   34  A    between atoms: _90  and  _91
REMARK   35  A    between atoms: _90  and  _93
REMARK   36  A    between atoms: _93  and  _94
REMARK   37  A    between atoms: _94  and  _95
REMARK   38  A    between atoms: _100  and  _102
REMARK   39  A    between atoms: _102  and  _103
REMARK   40  A    between atoms: _102  and  _105
REMARK   41  A    between atoms: _105  and  _106
REMARK   42  A    between atoms: _109  and  _111
REMARK   43  A    between atoms: _111  and  _112
REMARK   44  A    between atoms: _111  and  _114
REMARK   45  A    between atoms: _114  and  _115
REMARK   46  A    between atoms: _125  and  _127
REMARK   47  A    between atoms: _127  and  _128
REMARK   48  A    between atoms: _127  and  _130
REMARK   49  A    between atoms: _130  and  _131
REMARK   50  A    between atoms: _133  and  _135
REMARK   51  A    between atoms: _135  and  _136
REMARK   52  A    between atoms: _135  and  _138
REMARK   53  A    between atoms: _138  and  _139
REMARK   54  A    between atoms: _144  and  _146
REMARK   55  A    between atoms: _146  and  _147
REMARK   56  A    between atoms: _146  and  _149
REMARK   57  A    between atoms: _152  and  _154
REMARK   58  A    between atoms: _154  and  _155
REMARK   59  A    between atoms: _154  and  _157
REMARK   60  A    between atoms: _159  and  _161
REMARK   61  A    between atoms: _161  and  _162
REMARK   62  A    between atoms: _161  and  _164
REMARK   63  A    between atoms: _164  and  _165
REMARK   64  A    between atoms: _170  and  _172
REMARK   65  A    between atoms: _172  and  _173
REMARK   66  A    between atoms: _176  and  _178
REMARK   67  A    between atoms: _178  and  _179
REMARK   68  A    between atoms: _178  and  _181
REMARK   69  A    between atoms: _181  and  _182
REMARK   70  A    between atoms: _184  and  _186
REMARK   71  A    between atoms: _186  and  _187
REMARK   72  A    between atoms: _190  and  _192
REMARK   73  A    between atoms: _192  and  _193
REMARK   74  A    between atoms: _192  and  _195
REMARK   75  A    between atoms: _195  and  _196
REMARK   76  A    between atoms: _206  and  _208
REMARK   77  A    between atoms: _208  and  _209
REMARK   78  A    between atoms: _208  and  _211
REMARK   79  A    between atoms: _211  and  _212
REMARK   80  A    between atoms: _215  and  _217
REMARK   81  A    between atoms: _217  and  _218
REMARK   82  A    between atoms: _217  and  _220
REMARK   83  A    between atoms: _220  and  _221
REMARK   84  A    between atoms: _226  and  _227
REMARK   85  A    between atoms: _229  and  _231
REMARK   86  A    between atoms: _231  and  _232
REMARK   87  A    between atoms: _231  and  _234
REMARK   88  A    between atoms: _234  and  _235
REMARK   89  A    between atoms: _235  and  _236
REMARK   90  A    between atoms: _236  and  _237
REMARK   91  A    between atoms: _246  and  _248
REMARK   92  A    between atoms: _248  and  _249
REMARK   93  A    between atoms: _248  and  _251
REMARK   94  A    between atoms: _251  and  _252
REMARK   95  A    between atoms: _255  and  _257
REMARK   96  A    between atoms: _257  and  _258
REMARK   97  A    between atoms: _257  and  _260
REMARK   98  A    between atoms: _260  and  _261
REMARK   99  A    between atoms: _261  and  _262
REMARK  100  A    between atoms: _262  and  _263
REMARK  101  A    between atoms: _263  and  _264
REMARK  102  A    between atoms: _268  and  _270
REMARK  103  A    between atoms: _270  and  _271
REMARK  104  A    between atoms: _270  and  _273
REMARK  105  A    between atoms: _273  and  _274
REMARK  106  A    between atoms: _274  and  _275
REMARK  107  A    between atoms: _280  and  _282
REMARK  108  A    between atoms: _282  and  _283
REMARK  109  A    between atoms: _282  and  _285
REMARK  110  A    between atoms: _285  and  _286
REMARK  111  A    between atoms: _289  and  _291
REMARK  112  A    between atoms: _291  and  _292
REMARK  113  A    between atoms: _291  and  _294
REMARK  114  A    between atoms: _294  and  _295
REMARK  115  A    between atoms: _295  and  _296
REMARK  116  A    between atoms: _299  and  _301
REMARK  117  A    between atoms: _301  and  _302
REMARK  118  A    between atoms: _301  and  _304
REMARK  119  A    between atoms: _304  and  _305
REMARK  120  A    between atoms: _308  and  _310
REMARK  121  A    between atoms: _310  and  _311
REMARK  122  A    between atoms: _310  and  _313
REMARK  123  A    between atoms: _313  and  _314
REMARK  124  A    between atoms: _317  and  _319
REMARK  125  A    between atoms: _319  and  _320
REMARK  126  A    between atoms: _319  and  _322
REMARK  127  A    between atoms: _325  and  _327
REMARK  128  A    between atoms: _327  and  _328
REMARK  129  A    between atoms: _327  and  _330
REMARK  130  A    between atoms: _333  and  _335
REMARK  131  A    between atoms: _335  and  _336
REMARK  132  A    between atoms: _339  and  _341
REMARK  133  A    between atoms: _341  and  _342
REMARK  134  A    between atoms: _341  and  _344
REMARK  135  A    between atoms: _344  and  _345
REMARK  136  A    between atoms: _350  and  _352
REMARK  137  A    between atoms: _352  and  _353
REMARK  138  A    between atoms: _352  and  _355
REMARK  139  A    between atoms: _355  and  _356
REMARK  140  A    between atoms: _360  and  ZN_772
REMARK  141  A    between atoms: _361  and  _363
REMARK  142  A    between atoms: _363  and  _364
REMARK  143  A    between atoms: _363  and  _366
REMARK  144  A    between atoms: _366  and  _367
REMARK  145  A    between atoms: _367  and  _368
REMARK  146  A    between atoms: _371  and  _373
REMARK  147  A    between atoms: _373  and  _374
REMARK  148  A    between atoms: _373  and  _376
REMARK  149  A    between atoms: _376  and  _377
REMARK  150  A    between atoms: _377  and  _378
REMARK  151  A    between atoms: _380  and  _382
REMARK  152  A    between atoms: _382  and  _383
REMARK  153  A    between atoms: _382  and  _385
REMARK  154  A    between atoms: _385  and  _386
REMARK  155  A    between atoms: _390  and  ZN_772
REMARK  156  A    between atoms: _391  and  _393
REMARK  157  A    between atoms: _393  and  _394
REMARK  158  A    between atoms: _393  and  _396
REMARK  159  A    between atoms: _396  and  _397
REMARK  160  A    between atoms: _400  and  _402
REMARK  161  A    between atoms: _402  and  _403
REMARK  162  A    between atoms: _402  and  _405
REMARK  163  A    between atoms: _405  and  _406
REMARK  164  A    between atoms: _411  and  _412
REMARK  165  A    between atoms: _414  and  _416
REMARK  166  A    between atoms: _416  and  _417
REMARK  167  A    between atoms: _416  and  _419
REMARK  168  A    between atoms: _419  and  _420
REMARK  169  A    between atoms: _426  and  _428
REMARK  170  A    between atoms: _428  and  _429
REMARK  171  A    between atoms: _428  and  _431
REMARK  172  A    between atoms: _431  and  _432
REMARK  173  A    between atoms: _437  and  _438
REMARK  174  A    between atoms: _440  and  _442
REMARK  175  A    between atoms: _442  and  _443
REMARK  176  A    between atoms: _442  and  _445
REMARK  177  A    between atoms: _445  and  _446
REMARK  178  A    between atoms: _446  and  _447
REMARK  179  A    between atoms: _447  and  _448
REMARK  180  A    between atoms: _457  and  _459
REMARK  181  A    between atoms: _459  and  _460
REMARK  182  A    between atoms: _459  and  _462
REMARK  183  A    between atoms: _462  and  _463
REMARK  184  A    between atoms: _463  and  _464
REMARK  185  A    between atoms: _467  and  _469
REMARK  186  A    between atoms: _469  and  _470
REMARK  187  A    between atoms: _472  and  _474
REMARK  188  A    between atoms: _474  and  _475
REMARK  189  A    between atoms: _474  and  _477
REMARK  190  A    between atoms: _477  and  _478
REMARK  191  A    between atoms: _484  and  _485
REMARK  192  A    between atoms: _490  and  _492
REMARK  193  A    between atoms: _492  and  _493
REMARK  194  A    between atoms: _495  and  _497
REMARK  195  A    between atoms: _497  and  _498
REMARK  196  A    between atoms: _497  and  _500
REMARK  197  A    between atoms: _500  and  _501
REMARK  198  A    between atoms: _507  and  _509
REMARK  199  A    between atoms: _509  and  _510
REMARK  200  A    between atoms: _509  and  _512
REMARK  201  A    between atoms: _512  and  _513
REMARK  202  A    between atoms: _518  and  _520
REMARK  203  A    between atoms: _520  and  _521
REMARK  204  A    between atoms: _520  and  _523
REMARK  205  A    between atoms: _523  and  _524
REMARK  206  A    between atoms: _524  and  _525
REMARK  207  A    between atoms: _525  and  _526
REMARK  208  A    between atoms: _526  and  ZN_772
REMARK  209  A    between atoms: _528  and  _530
REMARK  210  A    between atoms: _530  and  _531
REMARK  211  A    between atoms: _534  and  _536
REMARK  212  A    between atoms: _536  and  _537
REMARK  213  A    between atoms: _539  and  _541
REMARK  214  A    between atoms: _541  and  _542
REMARK  215  A    between atoms: _541  and  _544
REMARK  216  A    between atoms: _544  and  _545
REMARK  217  A    between atoms: _548  and  _550
REMARK  218  A    between atoms: _550  and  _551
REMARK  219  A    between atoms: _554  and  _556
REMARK  220  A    between atoms: _556  and  _557
REMARK  221  A    between atoms: _556  and  _559
REMARK  222  A    between atoms: _559  and  _560
REMARK  223  A    between atoms: _563  and  _565
REMARK  224  A    between atoms: _565  and  _566
REMARK  225  A    between atoms: _565  and  _568
REMARK  226  A    between atoms: _568  and  _569
REMARK  227  A    between atoms: _569  and  _570
REMARK  228  A    between atoms: _570  and  _571
REMARK  229  A    between atoms: _571  and  _572
REMARK  230  A    between atoms: _576  and  _578
REMARK  231  A    between atoms: _578  and  _579
REMARK  232  A    between atoms: _578  and  _581
REMARK  233  A    between atoms: _581  and  _582
REMARK  234  A    between atoms: _588  and  _590
REMARK  235  A    between atoms: _590  and  _591
REMARK  236  A    between atoms: _590  and  _593
REMARK  237  A    between atoms: _593  and  _594
REMARK  238  A    between atoms: _600  and  _602
REMARK  239  A    between atoms: _602  and  _603
REMARK  240  A    between atoms: _602  and  _605
REMARK  241  A    between atoms: _605  and  _606
REMARK  242  A    between atoms: _608  and  _610
REMARK  243  A    between atoms: _610  and  _611
REMARK  244  A    between atoms: _610  and  _613
REMARK  245  A    between atoms: _616  and  _618
REMARK  246  A    between atoms: _618  and  _619
REMARK  247  A    between atoms: _618  and  _621
REMARK  248  A    between atoms: _621  and  _622
REMARK  249  A    between atoms: _622  and  _623
REMARK  250  A    between atoms: _623  and  _624
REMARK  251  A    between atoms: _624  and  _625
REMARK  252  A    between atoms: _629  and  _631
REMARK  253  A    between atoms: _631  and  _632
REMARK  254  A    between atoms: _631  and  _634
REMARK  255  A    between atoms: _634  and  _635
REMARK  256  A    between atoms: _641  and  _643
REMARK  257  A    between atoms: _643  and  _644
REMARK  258  A    between atoms: _643  and  _646
REMARK  259  A    between atoms: _646  and  _647
REMARK  260  A    between atoms: _652  and  _654
REMARK  261  A    between atoms: _654  and  _655
REMARK  262  A    between atoms: _654  and  _657
REMARK  263  A    between atoms: _657  and  _658
REMARK  264  A    between atoms: _660  and  _662
REMARK  265  A    between atoms: _662  and  _663
REMARK  266  A    between atoms: _662  and  _665
REMARK  267  A    between atoms: _665  and  _666
REMARK  268  A    between atoms: _668  and  _670
REMARK  269  A    between atoms: _670  and  _671
REMARK  270  A    between atoms: _670  and  _673
REMARK  271  A    between atoms: _677  and  _678
REMARK  272  A    between atoms: _683  and  _685
REMARK  273  A    between atoms: _685  and  _686
REMARK  274  A    between atoms: _685  and  _688
REMARK  275  A    between atoms: _688  and  _689
REMARK  276  A    between atoms: _694  and  _695
REMARK  277  A    between atoms: _697  and  _699
REMARK  278  A    between atoms: _699  and  _700
REMARK  279  A    between atoms: _699  and  _702
REMARK  280  A    between atoms: _702  and  _703
REMARK  281  A    between atoms: _703  and  _704
REMARK  282  A    between atoms: _704  and  _705
REMARK  283  A    between atoms: _714  and  _716
REMARK  284  A    between atoms: _716  and  _717
REMARK  285  A    between atoms: _716  and  _719
REMARK  286  A    between atoms: _719  and  _720
REMARK  287  A    between atoms: _725  and  _726
REMARK  288  A    between atoms: _728  and  _730
REMARK  289  A    between atoms: _730  and  _731
REMARK  290  A    between atoms: _730  and  _733
REMARK  291  A    between atoms: _733  and  _734
REMARK  292  A    between atoms: _740  and  _742
REMARK  293  A    between atoms: _742  and  _743
REMARK  294  A    between atoms: _742  and  _745
REMARK  295  A    between atoms: _745  and  _746
REMARK  296  A    between atoms: _748  and  _750
REMARK  297  A    between atoms: _750  and  _751
REMARK  298  A    between atoms: _750  and  _753
REMARK  299  A    between atoms: _753  and  _754
REMARK  300  A    between atoms: _760  and  _762
REMARK  301  A    between atoms: _762  and  _763
REMARK  302  A    between atoms: _762  and  _765
REMARK  303  A    between atoms: _765  and  _766
REMARK  304  A    between atoms: _766  and  _767
REMARK                            x       y       z     vdW  Elec       q    Type
REMARK                         _______ _______ _______ _____ _____    ______ ____
ROOT
ATOM      1  O   HOH     1      12.294 -10.298 -28.552  0.00  0.00    +0.000 OA
ENDROOT
TORSDOF 0
REMARK  Name = ../refined-set-2016/2xy9/2xy9_pocket.pdb
REMARK  304 active torsions:
REMARK  status: ('A' for Active; 'I' for Inactive)
REMARK    1  A    between atoms: _1  and  _3
REMARK    2  A    between atoms: _3  and  _4
REMARK    3  A    between atoms: _3  and  _6
REMARK    4  A    between atoms: _6  and  _7
REMARK    5  A    between atoms: _12  and  _14
REMARK    6  A    between atoms: _14  and  _15
REMARK    7  A    between atoms: _14  and  _17
REMARK    8  A    between atoms: _17  and  _18
REMARK    9  A    between atoms: _23  and  _25
REMARK   10  A    between atoms: _25  and  _26
REMARK   11  A    between atoms: _25  and  _28
REMARK   12  A    between atoms: _28  and  _29
REMARK   13  A    between atoms: _29  and  _30
REMARK   14  A    between atoms: _33  and  _35
REMARK   15  A    between atoms: _35  and  _36
REMARK   16  A    between atoms: _35  and  _38
REMARK   17  A    between atoms: _38  and  _39
REMARK   18  A    between atoms: _44  and  _45
REMARK   19  A    between atoms: _47  and  _49
REMARK   20  A    between atoms: _49  and  _50
REMARK   21  A    between atoms: _49  and  _52
REMARK   22  A    between atoms: _52  and  _53
REMARK   23  A    between atoms: _56  and  _58
REMARK   24  A    between atoms: _58  and  _59
REMARK   25  A    between atoms: _61  and  _63
REMARK   26  A    between atoms: _63  and  _64
REMARK   27  A    between atoms: _63  and  _66
REMARK   28  A    between atoms: _66  and  _67
REMARK   29  A    between atoms: _72  and  _74
REMARK   30  A    between atoms: _74  and  _75
REMARK   31  A    between atoms: _74  and  _77
REMARK   32  A    between atoms: _77  and  _78
REMARK   33  A    between atoms: _88  and  _90
REMARK   34  A    between atoms: _90  and  _91
REMARK   35  A    between atoms: _90  and  _93
REMARK   36  A    between atoms: _93  and  _94
REMARK   37  A    between atoms: _94  and  _95
REMARK   38  A    between atoms: _100  and  _102
REMARK   39  A    between atoms: _102  and  _103
REMARK   40  A    between atoms: _102  and  _105
REMARK   41  A    between atoms: _105  and  _106
REMARK   42  A    between atoms: _109  and  _111
REMARK   43  A    between atoms: _111  and  _112
REMARK   44  A    between atoms: _111  and  _114
REMARK   45  A    between atoms: _114  and  _115
REMARK   46  A    between atoms: _125  and  _127
REMARK   47  A    between atoms: _127  and  _128
REMARK   48  A    between atoms: _127  and  _130
REMARK   49  A    between atoms: _130  and  _131
REMARK   50  A    between atoms: _133  and  _135
REMARK   51  A    between atoms: _135  and  _136
REMARK   52  A    between atoms: _135  and  _138
REMARK   53  A    between atoms: _138  and  _139
REMARK   54  A    between atoms: _144  and  _146
REMARK   55  A    between atoms: _146  and  _147
REMARK   56  A    between atoms: _146  and  _149
REMARK   57  A    between atoms: _152  and  _154
REMARK   58  A    between atoms: _154  and  _155
REMARK   59  A    between atoms: _154  and  _157
REMARK   60  A    between atoms: _159  and  _161
REMARK   61  A    between atoms: _161  and  _162
REMARK   62  A    between atoms: _161  and  _164
REMARK   63  A    between atoms: _164  and  _165
REMARK   64  A    between atoms: _170  and  _172
REMARK   65  A    between atoms: _172  and  _173
REMARK   66  A    between atoms: _176  and  _178
REMARK   67  A    between atoms: _178  and  _179
REMARK   68  A    between atoms: _178  and  _181
REMARK   69  A    between atoms: _181  and  _182
REMARK   70  A    between atoms: _184  and  _186
REMARK   71  A    between atoms: _186  and  _187
REMARK   72  A    between atoms: _190  and  _192
REMARK   73  A    between atoms: _192  and  _193
REMARK   74  A    between atoms: _192  and  _195
REMARK   75  A    between atoms: _195  and  _196
REMARK   76  A    between atoms: _206  and  _208
REMARK   77  A    between atoms: _208  and  _209
REMARK   78  A    between atoms: _208  and  _211
REMARK   79  A    between atoms: _211  and  _212
REMARK   80  A    between atoms: _215  and  _217
REMARK   81  A    between atoms: _217  and  _218
REMARK   82  A    between atoms: _217  and  _220
REMARK   83  A    between atoms: _220  and  _221
REMARK   84  A    between atoms: _226  and  _227
REMARK   85  A    between atoms: _229  and  _231
REMARK   86  A    between atoms: _231  and  _232
REMARK   87  A    between atoms: _231  and  _234
REMARK   88  A    between atoms: _234  and  _235
REMARK   89  A    between atoms: _235  and  _236
REMARK   90  A    between atoms: _236  and  _237
REMARK   91  A    between atoms: _246  and  _248
REMARK   92  A    between atoms: _248  and  _249
REMARK   93  A    between atoms: _248  and  _251
REMARK   94  A    between atoms: _251  and  _252
REMARK   95  A    between atoms: _255  and  _257
REMARK   96  A    between atoms: _257  and  _258
REMARK   97  A    between atoms: _257  and  _260
REMARK   98  A    between atoms: _260  and  _261
REMARK   99  A    between atoms: _261  and  _262
REMARK  100  A    between atoms: _262  and  _263
REMARK  101  A    between atoms: _263  and  _264
REMARK  102  A    between atoms: _268  and  _270
REMARK  103  A    between atoms: _270  and  _271
REMARK  104  A    between atoms: _270  and  _273
REMARK  105  A    between atoms: _273  and  _274
REMARK  106  A    between atoms: _274  and  _275
REMARK  107  A    between atoms: _280  and  _282
REMARK  108  A    between atoms: _282  and  _283
REMARK  109  A    between atoms: _282  and  _285
REMARK  110  A    between atoms: _285  and  _286
REMARK  111  A    between atoms: _289  and  _291
REMARK  112  A    between atoms: _291  and  _292
REMARK  113  A    between atoms: _291  and  _294
REMARK  114  A    between atoms: _294  and  _295
REMARK  115  A    between atoms: _295  and  _296
REMARK  116  A    between atoms: _299  and  _301
REMARK  117  A    between atoms: _301  and  _302
REMARK  118  A    between atoms: _301  and  _304
REMARK  119  A    between atoms: _304  and  _305
REMARK  120  A    between atoms: _308  and  _310
REMARK  121  A    between atoms: _310  and  _311
REMARK  122  A    between atoms: _310  and  _313
REMARK  123  A    between atoms: _313  and  _314
REMARK  124  A    between atoms: _317  and  _319
REMARK  125  A    between atoms: _319  and  _320
REMARK  126  A    between atoms: _319  and  _322
REMARK  127  A    between atoms: _325  and  _327
REMARK  128  A    between atoms: _327  and  _328
REMARK  129  A    between atoms: _327  and  _330
REMARK  130  A    between atoms: _333  and  _335
REMARK  131  A    between atoms: _335  and  _336
REMARK  132  A    between atoms: _339  and  _341
REMARK  133  A    between atoms: _341  and  _342
REMARK  134  A    between atoms: _341  and  _344
REMARK  135  A    between atoms: _344  and  _345
REMARK  136  A    between atoms: _350  and  _352
REMARK  137  A    between atoms: _352  and  _353
REMARK  138  A    between atoms: _352  and  _355
REMARK  139  A    between atoms: _355  and  _356
REMARK  140  A    between atoms: _360  and  ZN_772
REMARK  141  A    between atoms: _361  and  _363
REMARK  142  A    between atoms: _363  and  _364
REMARK  143  A    between atoms: _363  and  _366
REMARK  144  A    between atoms: _366  and  _367
REMARK  145  A    between atoms: _367  and  _368
REMARK  146  A    between atoms: _371  and  _373
REMARK  147  A    between atoms: _373  and  _374
REMARK  148  A    between atoms: _373  and  _376
REMARK  149  A    between atoms: _376  and  _377
REMARK  150  A    between atoms: _377  and  _378
REMARK  151  A    between atoms: _380  and  _382
REMARK  152  A    between atoms: _382  and  _383
REMARK  153  A    between atoms: _382  and  _385
REMARK  154  A    between atoms: _385  and  _386
REMARK  155  A    between atoms: _390  and  ZN_772
REMARK  156  A    between atoms: _391  and  _393
REMARK  157  A    between atoms: _393  and  _394
REMARK  158  A    between atoms: _393  and  _396
REMARK  159  A    between atoms: _396  and  _397
REMARK  160  A    between atoms: _400  and  _402
REMARK  161  A    between atoms: _402  and  _403
REMARK  162  A    between atoms: _402  and  _405
REMARK  163  A    between atoms: _405  and  _406
REMARK  164  A    between atoms: _411  and  _412
REMARK  165  A    between atoms: _414  and  _416
REMARK  166  A    between atoms: _416  and  _417
REMARK  167  A    between atoms: _416  and  _419
REMARK  168  A    between atoms: _419  and  _420
REMARK  169  A    between atoms: _426  and  _428
REMARK  170  A    between atoms: _428  and  _429
REMARK  171  A    between atoms: _428  and  _431
REMARK  172  A    between atoms: _431  and  _432
REMARK  173  A    between atoms: _437  and  _438
REMARK  174  A    between atoms: _440  and  _442
REMARK  175  A    between atoms: _442  and  _443
REMARK  176  A    between atoms: _442  and  _445
REMARK  177  A    between atoms: _445  and  _446
REMARK  178  A    between atoms: _446  and  _447
REMARK  179  A    between atoms: _447  and  _448
REMARK  180  A    between atoms: _457  and  _459
REMARK  181  A    between atoms: _459  and  _460
REMARK  182  A    between atoms: _459  and  _462
REMARK  183  A    between atoms: _462  and  _463
REMARK  184  A    between atoms: _463  and  _464
REMARK  185  A    between atoms: _467  and  _469
REMARK  186  A    between atoms: _469  and  _470
REMARK  187  A    between atoms: _472  and  _474
REMARK  188  A    between atoms: _474  and  _475
REMARK  189  A    between atoms: _474  and  _477
REMARK  190  A    between atoms: _477  and  _478
REMARK  191  A    between atoms: _484  and  _485
REMARK  192  A    between atoms: _490  and  _492
REMARK  193  A    between atoms: _492  and  _493
REMARK  194  A    between atoms: _495  and  _497
REMARK  195  A    between atoms: _497  and  _498
REMARK  196  A    between atoms: _497  and  _500
REMARK  197  A    between atoms: _500  and  _501
REMARK  198  A    between atoms: _507  and  _509
REMARK  199  A    between atoms: _509  and  _510
REMARK  200  A    between atoms: _509  and  _512
REMARK  201  A    between atoms: _512  and  _513
REMARK  202  A    between atoms: _518  and  _520
REMARK  203  A    between atoms: _520  and  _521
REMARK  204  A    between atoms: _520  and  _523
REMARK  205  A    between atoms: _523  and  _524
REMARK  206  A    between atoms: _524  and  _525
REMARK  207  A    between atoms: _525  and  _526
REMARK  208  A    between atoms: _526  and  ZN_772
REMARK  209  A    between atoms: _528  and  _530
REMARK  210  A    between atoms: _530  and  _531
REMARK  211  A    between atoms: _534  and  _536
REMARK  212  A    between atoms: _536  and  _537
REMARK  213  A    between atoms: _539  and  _541
REMARK  214  A    between atoms: _541  and  _542
REMARK  215  A    between atoms: _541  and  _544
REMARK  216  A    between atoms: _544  and  _545
REMARK  217  A    between atoms: _548  and  _550
REMARK  218  A    between atoms: _550  and  _551
REMARK  219  A    between atoms: _554  and  _556
REMARK  220  A    between atoms: _556  and  _557
REMARK  221  A    between atoms: _556  and  _559
REMARK  222  A    between atoms: _559  and  _560
REMARK  223  A    between atoms: _563  and  _565
REMARK  224  A    between atoms: _565  and  _566
REMARK  225  A    between atoms: _565  and  _568
REMARK  226  A    between atoms: _568  and  _569
REMARK  227  A    between atoms: _569  and  _570
REMARK  228  A    between atoms: _570  and  _571
REMARK  229  A    between atoms: _571  and  _572
REMARK  230  A    between atoms: _576  and  _578
REMARK  231  A    between atoms: _578  and  _579
REMARK  232  A    between atoms: _578  and  _581
REMARK  233  A    between atoms: _581  and  _582
REMARK  234  A    between atoms: _588  and  _590
REMARK  235  A    between atoms: _590  and  _591
REMARK  236  A    between atoms: _590  and  _593
REMARK  237  A    between atoms: _593  and  _594
REMARK  238  A    between atoms: _600  and  _602
REMARK  239  A    between atoms: _602  and  _603
REMARK  240  A    between atoms: _602  and  _605
REMARK  241  A    between atoms: _605  and  _606
REMARK  242  A    between atoms: _608  and  _610
REMARK  243  A    between atoms: _610  and  _611
REMARK  244  A    between atoms: _610  and  _613
REMARK  245  A    between atoms: _616  and  _618
REMARK  246  A    between atoms: _618  and  _619
REMARK  247  A    between atoms: _618  and  _621
REMARK  248  A    between atoms: _621  and  _622
REMARK  249  A    between atoms: _622  and  _623
REMARK  250  A    between atoms: _623  and  _624
REMARK  251  A    between atoms: _624  and  _625
REMARK  252  A    between atoms: _629  and  _631
REMARK  253  A    between atoms: _631  and  _632
REMARK  254  A    between atoms: _631  and  _634
REMARK  255  A    between atoms: _634  and  _635
REMARK  256  A    between atoms: _641  and  _643
REMARK  257  A    between atoms: _643  and  _644
REMARK  258  A    between atoms: _643  and  _646
REMARK  259  A    between atoms: _646  and  _647
REMARK  260  A    between atoms: _652  and  _654
REMARK  261  A    between atoms: _654  and  _655
REMARK  262  A    between atoms: _654  and  _657
REMARK  263  A    between atoms: _657  and  _658
REMARK  264  A    between atoms: _660  and  _662
REMARK  265  A    between atoms: _662  and  _663
REMARK  266  A    between atoms: _662  and  _665
REMARK  267  A    between atoms: _665  and  _666
REMARK  268  A    between atoms: _668  and  _670
REMARK  269  A    between atoms: _670  and  _671
REMARK  270  A    between atoms: _670  and  _673
REMARK  271  A    between atoms: _677  and  _678
REMARK  272  A    between atoms: _683  and  _685
REMARK  273  A    between atoms: _685  and  _686
REMARK  274  A    between atoms: _685  and  _688
REMARK  275  A    between atoms: _688  and  _689
REMARK  276  A    between atoms: _694  and  _695
REMARK  277  A    between atoms: _697  and  _699
REMARK  278  A    between atoms: _699  and  _700
REMARK  279  A    between atoms: _699  and  _702
REMARK  280  A    between atoms: _702  and  _703
REMARK  281  A    between atoms: _703  and  _704
REMARK  282  A    between atoms: _704  and  _705
REMARK  283  A    between atoms: _714  and  _716
REMARK  284  A    between atoms: _716  and  _717
REMARK  285  A    between atoms: _716  and  _719
REMARK  286  A    between atoms: _719  and  _720
REMARK  287  A    between atoms: _725  and  _726
REMARK  288  A    between atoms: _728  and  _730
REMARK  289  A    between atoms: _730  and  _731
REMARK  290  A    between atoms: _730  and  _733
REMARK  291  A    between atoms: _733  and  _734
REMARK  292  A    between atoms: _740  and  _742
REMARK  293  A    between atoms: _742  and  _743
REMARK  294  A    between atoms: _742  and  _745
REMARK  295  A    between atoms: _745  and  _746
REMARK  296  A    between atoms: _748  and  _750
REMARK  297  A    between atoms: _750  and  _751
REMARK  298  A    between atoms: _750  and  _753
REMARK  299  A    between atoms: _753  and  _754
REMARK  300  A    between atoms: _760  and  _762
REMARK  301  A    between atoms: _762  and  _763
REMARK  302  A    between atoms: _762  and  _765
REMARK  303  A    between atoms: _765  and  _766
REMARK  304  A    between atoms: _766  and  _767
REMARK                            x       y       z     vdW  Elec       q    Type
REMARK                         _______ _______ _______ _____ _____    ______ ____
ROOT
ATOM      1  O   HOH     1      13.115 -12.781 -27.838  0.00  0.00    +0.000 OA
ENDROOT
TORSDOF 0
REMARK  Name = ../refined-set-2016/2xy9/2xy9_pocket.pdb
REMARK  304 active torsions:
REMARK  status: ('A' for Active; 'I' for Inactive)
REMARK    1  A    between atoms: _1  and  _3
REMARK    2  A    between atoms: _3  and  _4
REMARK    3  A    between atoms: _3  and  _6
REMARK    4  A    between atoms: _6  and  _7
REMARK    5  A    between atoms: _12  and  _14
REMARK    6  A    between atoms: _14  and  _15
REMARK    7  A    between atoms: _14  and  _17
REMARK    8  A    between atoms: _17  and  _18
REMARK    9  A    between atoms: _23  and  _25
REMARK   10  A    between atoms: _25  and  _26
REMARK   11  A    between atoms: _25  and  _28
REMARK   12  A    between atoms: _28  and  _29
REMARK   13  A    between atoms: _29  and  _30
REMARK   14  A    between atoms: _33  and  _35
REMARK   15  A    between atoms: _35  and  _36
REMARK   16  A    between atoms: _35  and  _38
REMARK   17  A    between atoms: _38  and  _39
REMARK   18  A    between atoms: _44  and  _45
REMARK   19  A    between atoms: _47  and  _49
REMARK   20  A    between atoms: _49  and  _50
REMARK   21  A    between atoms: _49  and  _52
REMARK   22  A    between atoms: _52  and  _53
REMARK   23  A    between atoms: _56  and  _58
REMARK   24  A    between atoms: _58  and  _59
REMARK   25  A    between atoms: _61  and  _63
REMARK   26  A    between atoms: _63  and  _64
REMARK   27  A    between atoms: _63  and  _66
REMARK   28  A    between atoms: _66  and  _67
REMARK   29  A    between atoms: _72  and  _74
REMARK   30  A    between atoms: _74  and  _75
REMARK   31  A    between atoms: _74  and  _77
REMARK   32  A    between atoms: _77  and  _78
REMARK   33  A    between atoms: _88  and  _90
REMARK   34  A    between atoms: _90  and  _91
REMARK   35  A    between atoms: _90  and  _93
REMARK   36  A    between atoms: _93  and  _94
REMARK   37  A    between atoms: _94  and  _95
REMARK   38  A    between atoms: _100  and  _102
REMARK   39  A    between atoms: _102  and  _103
REMARK   40  A    between atoms: _102  and  _105
REMARK   41  A    between atoms: _105  and  _106
REMARK   42  A    between atoms: _109  and  _111
REMARK   43  A    between atoms: _111  and  _112
REMARK   44  A    between atoms: _111  and  _114
REMARK   45  A    between atoms: _114  and  _115
REMARK   46  A    between atoms: _125  and  _127
REMARK   47  A    between atoms: _127  and  _128
REMARK   48  A    between atoms: _127  and  _130
REMARK   49  A    between atoms: _130  and  _131
REMARK   50  A    between atoms: _133  and  _135
REMARK   51  A    between atoms: _135  and  _136
REMARK   52  A    between atoms: _135  and  _138
REMARK   53  A    between atoms: _138  and  _139
REMARK   54  A    between atoms: _144  and  _146
REMARK   55  A    between atoms: _146  and  _147
REMARK   56  A    between atoms: _146  and  _149
REMARK   57  A    between atoms: _152  and  _154
REMARK   58  A    between atoms: _154  and  _155
REMARK   59  A    between atoms: _154  and  _157
REMARK   60  A    between atoms: _159  and  _161
REMARK   61  A    between atoms: _161  and  _162
REMARK   62  A    between atoms: _161  and  _164
REMARK   63  A    between atoms: _164  and  _165
REMARK   64  A    between atoms: _170  and  _172
REMARK   65  A    between atoms: _172  and  _173
REMARK   66  A    between atoms: _176  and  _178
REMARK   67  A    between atoms: _178  and  _179
REMARK   68  A    between atoms: _178  and  _181
REMARK   69  A    between atoms: _181  and  _182
REMARK   70  A    between atoms: _184  and  _186
REMARK   71  A    between atoms: _186  and  _187
REMARK   72  A    between atoms: _190  and  _192
REMARK   73  A    between atoms: _192  and  _193
REMARK   74  A    between atoms: _192  and  _195
REMARK   75  A    between atoms: _195  and  _196
REMARK   76  A    between atoms: _206  and  _208
REMARK   77  A    between atoms: _208  and  _209
REMARK   78  A    between atoms: _208  and  _211
REMARK   79  A    between atoms: _211  and  _212
REMARK   80  A    between atoms: _215  and  _217
REMARK   81  A    between atoms: _217  and  _218
REMARK   82  A    between atoms: _217  and  _220
REMARK   83  A    between atoms: _220  and  _221
REMARK   84  A    between atoms: _226  and  _227
REMARK   85  A    between atoms: _229  and  _231
REMARK   86  A    between atoms: _231  and  _232
REMARK   87  A    between atoms: _231  and  _234
REMARK   88  A    between atoms: _234  and  _235
REMARK   89  A    between atoms: _235  and  _236
REMARK   90  A    between atoms: _236  and  _237
REMARK   91  A    between atoms: _246  and  _248
REMARK   92  A    between atoms: _248  and  _249
REMARK   93  A    between atoms: _248  and  _251
REMARK   94  A    between atoms: _251  and  _252
REMARK   95  A    between atoms: _255  and  _257
REMARK   96  A    between atoms: _257  and  _258
REMARK   97  A    between atoms: _257  and  _260
REMARK   98  A    between atoms: _260  and  _261
REMARK   99  A    between atoms: _261  and  _262
REMARK  100  A    between atoms: _262  and  _263
REMARK  101  A    between atoms: _263  and  _264
REMARK  102  A    between atoms: _268  and  _270
REMARK  103  A    between atoms: _270  and  _271
REMARK  104  A    between atoms: _270  and  _273
REMARK  105  A    between atoms: _273  and  _274
REMARK  106  A    between atoms: _274  and  _275
REMARK  107  A    between atoms: _280  and  _282
REMARK  108  A    between atoms: _282  and  _283
REMARK  109  A    between atoms: _282  and  _285
REMARK  110  A    between atoms: _285  and  _286
REMARK  111  A    between atoms: _289  and  _291
REMARK  112  A    between atoms: _291  and  _292
REMARK  113  A    between atoms: _291  and  _294
REMARK  114  A    between atoms: _294  and  _295
REMARK  115  A    between atoms: _295  and  _296
REMARK  116  A    between atoms: _299  and  _301
REMARK  117  A    between atoms: _301  and  _302
REMARK  118  A    between atoms: _301  and  _304
REMARK  119  A    between atoms: _304  and  _305
REMARK  120  A    between atoms: _308  and  _310
REMARK  121  A    between atoms: _310  and  _311
REMARK  122  A    between atoms: _310  and  _313
REMARK  123  A    between atoms: _313  and  _314
REMARK  124  A    between atoms: _317  and  _319
REMARK  125  A    between atoms: _319  and  _320
REMARK  126  A    between atoms: _319  and  _322
REMARK  127  A    between atoms: _325  and  _327
REMARK  128  A    between atoms: _327  and  _328
REMARK  129  A    between atoms: _327  and  _330
REMARK  130  A    between atoms: _333  and  _335
REMARK  131  A    between atoms: _335  and  _336
REMARK  132  A    between atoms: _339  and  _341
REMARK  133  A    between atoms: _341  and  _342
REMARK  134  A    between atoms: _341  and  _344
REMARK  135  A    between atoms: _344  and  _345
REMARK  136  A    between atoms: _350  and  _352
REMARK  137  A    between atoms: _352  and  _353
REMARK  138  A    between atoms: _352  and  _355
REMARK  139  A    between atoms: _355  and  _356
REMARK  140  A    between atoms: _360  and  ZN_772
REMARK  141  A    between atoms: _361  and  _363
REMARK  142  A    between atoms: _363  and  _364
REMARK  143  A    between atoms: _363  and  _366
REMARK  144  A    between atoms: _366  and  _367
REMARK  145  A    between atoms: _367  and  _368
REMARK  146  A    between atoms: _371  and  _373
REMARK  147  A    between atoms: _373  and  _374
REMARK  148  A    between atoms: _373  and  _376
REMARK  149  A    between atoms: _376  and  _377
REMARK  150  A    between atoms: _377  and  _378
REMARK  151  A    between atoms: _380  and  _382
REMARK  152  A    between atoms: _382  and  _383
REMARK  153  A    between atoms: _382  and  _385
REMARK  154  A    between atoms: _385  and  _386
REMARK  155  A    between atoms: _390  and  ZN_772
REMARK  156  A    between atoms: _391  and  _393
REMARK  157  A    between atoms: _393  and  _394
REMARK  158  A    between atoms: _393  and  _396
REMARK  159  A    between atoms: _396  and  _397
REMARK  160  A    between atoms: _400  and  _402
REMARK  161  A    between atoms: _402  and  _403
REMARK  162  A    between atoms: _402  and  _405
REMARK  163  A    between atoms: _405  and  _406
REMARK  164  A    between atoms: _411  and  _412
REMARK  165  A    between atoms: _414  and  _416
REMARK  166  A    between atoms: _416  and  _417
REMARK  167  A    between atoms: _416  and  _419
REMARK  168  A    between atoms: _419  and  _420
REMARK  169  A    between atoms: _426  and  _428
REMARK  170  A    between atoms: _428  and  _429
REMARK  171  A    between atoms: _428  and  _431
REMARK  172  A    between atoms: _431  and  _432
REMARK  173  A    between atoms: _437  and  _438
REMARK  174  A    between atoms: _440  and  _442
REMARK  175  A    between atoms: _442  and  _443
REMARK  176  A    between atoms: _442  and  _445
REMARK  177  A    between atoms: _445  and  _446
REMARK  178  A    between atoms: _446  and  _447
REMARK  179  A    between atoms: _447  and  _448
REMARK  180  A    between atoms: _457  and  _459
REMARK  181  A    between atoms: _459  and  _460
REMARK  182  A    between atoms: _459  and  _462
REMARK  183  A    between atoms: _462  and  _463
REMARK  184  A    between atoms: _463  and  _464
REMARK  185  A    between atoms: _467  and  _469
REMARK  186  A    between atoms: _469  and  _470
REMARK  187  A    between atoms: _472  and  _474
REMARK  188  A    between atoms: _474  and  _475
REMARK  189  A    between atoms: _474  and  _477
REMARK  190  A    between atoms: _477  and  _478
REMARK  191  A    between atoms: _484  and  _485
REMARK  192  A    between atoms: _490  and  _492
REMARK  193  A    between atoms: _492  and  _493
REMARK  194  A    between atoms: _495  and  _497
REMARK  195  A    between atoms: _497  and  _498
REMARK  196  A    between atoms: _497  and  _500
REMARK  197  A    between atoms: _500  and  _501
REMARK  198  A    between atoms: _507  and  _509
REMARK  199  A    between atoms: _509  and  _510
REMARK  200  A    between atoms: _509  and  _512
REMARK  201  A    between atoms: _512  and  _513
REMARK  202  A    between atoms: _518  and  _520
REMARK  203  A    between atoms: _520  and  _521
REMARK  204  A    between atoms: _520  and  _523
REMARK  205  A    between atoms: _523  and  _524
REMARK  206  A    between atoms: _524  and  _525
REMARK  207  A    between atoms: _525  and  _526
REMARK  208  A    between atoms: _526  and  ZN_772
REMARK  209  A    between atoms: _528  and  _530
REMARK  210  A    between atoms: _530  and  _531
REMARK  211  A    between atoms: _534  and  _536
REMARK  212  A    between atoms: _536  and  _537
REMARK  213  A    between atoms: _539  and  _541
REMARK  214  A    between atoms: _541  and  _542
REMARK  215  A    between atoms: _541  and  _544
REMARK  216  A    between atoms: _544  and  _545
REMARK  217  A    between atoms: _548  and  _550
REMARK  218  A    between atoms: _550  and  _551
REMARK  219  A    between atoms: _554  and  _556
REMARK  220  A    between atoms: _556  and  _557
REMARK  221  A    between atoms: _556  and  _559
REMARK  222  A    between atoms: _559  and  _560
REMARK  223  A    between atoms: _563  and  _565
REMARK  224  A    between atoms: _565  and  _566
REMARK  225  A    between atoms: _565  and  _568
REMARK  226  A    between atoms: _568  and  _569
REMARK  227  A    between atoms: _569  and  _570
REMARK  228  A    between atoms: _570  and  _571
REMARK  229  A    between atoms: _571  and  _572
REMARK  230  A    between atoms: _576  and  _578
REMARK  231  A    between atoms: _578  and  _579
REMARK  232  A    between atoms: _578  and  _581
REMARK  233  A    between atoms: _581  and  _582
REMARK  234  A    between atoms: _588  and  _590
REMARK  235  A    between atoms: _590  and  _591
REMARK  236  A    between atoms: _590  and  _593
REMARK  237  A    between atoms: _593  and  _594
REMARK  238  A    between atoms: _600  and  _602
REMARK  239  A    between atoms: _602  and  _603
REMARK  240  A    between atoms: _602  and  _605
REMARK  241  A    between atoms: _605  and  _606
REMARK  242  A    between atoms: _608  and  _610
REMARK  243  A    between atoms: _610  and  _611
REMARK  244  A    between atoms: _610  and  _613
REMARK  245  A    between atoms: _616  and  _618
REMARK  246  A    between atoms: _618  and  _619
REMARK  247  A    between atoms: _618  and  _621
REMARK  248  A    between atoms: _621  and  _622
REMARK  249  A    between atoms: _622  and  _623
REMARK  250  A    between atoms: _623  and  _624
REMARK  251  A    between atoms: _624  and  _625
REMARK  252  A    between atoms: _629  and  _631
REMARK  253  A    between atoms: _631  and  _632
REMARK  254  A    between atoms: _631  and  _634
REMARK  255  A    between atoms: _634  and  _635
REMARK  256  A    between atoms: _641  and  _643
REMARK  257  A    between atoms: _643  and  _644
REMARK  258  A    between atoms: _643  and  _646
REMARK  259  A    between atoms: _646  and  _647
REMARK  260  A    between atoms: _652  and  _654
REMARK  261  A    between atoms: _654  and  _655
REMARK  262  A    between atoms: _654  and  _657
REMARK  263  A    between atoms: _657  and  _658
REMARK  264  A    between atoms: _660  and  _662
REMARK  265  A    between atoms: _662  and  _663
REMARK  266  A    between atoms: _662  and  _665
REMARK  267  A    between atoms: _665  and  _666
REMARK  268  A    between atoms: _668  and  _670
REMARK  269  A    between atoms: _670  and  _671
REMARK  270  A    between atoms: _670  and  _673
REMARK  271  A    between atoms: _677  and  _678
REMARK  272  A    between atoms: _683  and  _685
REMARK  273  A    between atoms: _685  and  _686
REMARK  274  A    between atoms: _685  and  _688
REMARK  275  A    between atoms: _688  and  _689
REMARK  276  A    between atoms: _694  and  _695
REMARK  277  A    between atoms: _697  and  _699
REMARK  278  A    between atoms: _699  and  _700
REMARK  279  A    between atoms: _699  and  _702
REMARK  280  A    between atoms: _702  and  _703
REMARK  281  A    between atoms: _703  and  _704
REMARK  282  A    between atoms: _704  and  _705
REMARK  283  A    between atoms: _714  and  _716
REMARK  284  A    between atoms: _716  and  _717
REMARK  285  A    between atoms: _716  and  _719
REMARK  286  A    between atoms: _719  and  _720
REMARK  287  A    between atoms: _725  and  _726
REMARK  288  A    between atoms: _728  and  _730
REMARK  289  A    between atoms: _730  and  _731
REMARK  290  A    between atoms: _730  and  _733
REMARK  291  A    between atoms: _733  and  _734
REMARK  292  A    between atoms: _740  and  _742
REMARK  293  A    between atoms: _742  and  _743
REMARK  294  A    between atoms: _742  and  _745
REMARK  295  A    between atoms: _745  and  _746
REMARK  296  A    between atoms: _748  and  _750
REMARK  297  A    between atoms: _750  and  _751
REMARK  298  A    between atoms: _750  and  _753
REMARK  299  A    between atoms: _753  and  _754
REMARK  300  A    between atoms: _760  and  _762
REMARK  301  A    between atoms: _762  and  _763
REMARK  302  A    between atoms: _762  and  _765
REMARK  303  A    between atoms: _765  and  _766
REMARK  304  A    between atoms: _766  and  _767
REMARK                            x       y       z     vdW  Elec       q    Type
REMARK                         _______ _______ _______ _____ _____    ______ ____
ROOT
ATOM      1  O   HOH     1      10.868 -15.067 -29.206  0.00  0.00    +0.000 OA
ENDROOT
TORSDOF 0
REMARK  Name = ../refined-set-2016/2xy9/2xy9_pocket.pdb
REMARK  304 active torsions:
REMARK  status: ('A' for Active; 'I' for Inactive)
REMARK    1  A    between atoms: _1  and  _3
REMARK    2  A    between atoms: _3  and  _4
REMARK    3  A    between atoms: _3  and  _6
REMARK    4  A    between atoms: _6  and  _7
REMARK    5  A    between atoms: _12  and  _14
REMARK    6  A    between atoms: _14  and  _15
REMARK    7  A    between atoms: _14  and  _17
REMARK    8  A    between atoms: _17  and  _18
REMARK    9  A    between atoms: _23  and  _25
REMARK   10  A    between atoms: _25  and  _26
REMARK   11  A    between atoms: _25  and  _28
REMARK   12  A    between atoms: _28  and  _29
REMARK   13  A    between atoms: _29  and  _30
REMARK   14  A    between atoms: _33  and  _35
REMARK   15  A    between atoms: _35  and  _36
REMARK   16  A    between atoms: _35  and  _38
REMARK   17  A    between atoms: _38  and  _39
REMARK   18  A    between atoms: _44  and  _45
REMARK   19  A    between atoms: _47  and  _49
REMARK   20  A    between atoms: _49  and  _50
REMARK   21  A    between atoms: _49  and  _52
REMARK   22  A    between atoms: _52  and  _53
REMARK   23  A    between atoms: _56  and  _58
REMARK   24  A    between atoms: _58  and  _59
REMARK   25  A    between atoms: _61  and  _63
REMARK   26  A    between atoms: _63  and  _64
REMARK   27  A    between atoms: _63  and  _66
REMARK   28  A    between atoms: _66  and  _67
REMARK   29  A    between atoms: _72  and  _74
REMARK   30  A    between atoms: _74  and  _75
REMARK   31  A    between atoms: _74  and  _77
REMARK   32  A    between atoms: _77  and  _78
REMARK   33  A    between atoms: _88  and  _90
REMARK   34  A    between atoms: _90  and  _91
REMARK   35  A    between atoms: _90  and  _93
REMARK   36  A    between atoms: _93  and  _94
REMARK   37  A    between atoms: _94  and  _95
REMARK   38  A    between atoms: _100  and  _102
REMARK   39  A    between atoms: _102  and  _103
REMARK   40  A    between atoms: _102  and  _105
REMARK   41  A    between atoms: _105  and  _106
REMARK   42  A    between atoms: _109  and  _111
REMARK   43  A    between atoms: _111  and  _112
REMARK   44  A    between atoms: _111  and  _114
REMARK   45  A    between atoms: _114  and  _115
REMARK   46  A    between atoms: _125  and  _127
REMARK   47  A    between atoms: _127  and  _128
REMARK   48  A    between atoms: _127  and  _130
REMARK   49  A    between atoms: _130  and  _131
REMARK   50  A    between atoms: _133  and  _135
REMARK   51  A    between atoms: _135  and  _136
REMARK   52  A    between atoms: _135  and  _138
REMARK   53  A    between atoms: _138  and  _139
REMARK   54  A    between atoms: _144  and  _146
REMARK   55  A    between atoms: _146  and  _147
REMARK   56  A    between atoms: _146  and  _149
REMARK   57  A    between atoms: _152  and  _154
REMARK   58  A    between atoms: _154  and  _155
REMARK   59  A    between atoms: _154  and  _157
REMARK   60  A    between atoms: _159  and  _161
REMARK   61  A    between atoms: _161  and  _162
REMARK   62  A    between atoms: _161  and  _164
REMARK   63  A    between atoms: _164  and  _165
REMARK   64  A    between atoms: _170  and  _172
REMARK   65  A    between atoms: _172  and  _173
REMARK   66  A    between atoms: _176  and  _178
REMARK   67  A    between atoms: _178  and  _179
REMARK   68  A    between atoms: _178  and  _181
REMARK   69  A    between atoms: _181  and  _182
REMARK   70  A    between atoms: _184  and  _186
REMARK   71  A    between atoms: _186  and  _187
REMARK   72  A    between atoms: _190  and  _192
REMARK   73  A    between atoms: _192  and  _193
REMARK   74  A    between atoms: _192  and  _195
REMARK   75  A    between atoms: _195  and  _196
REMARK   76  A    between atoms: _206  and  _208
REMARK   77  A    between atoms: _208  and  _209
REMARK   78  A    between atoms: _208  and  _211
REMARK   79  A    between atoms: _211  and  _212
REMARK   80  A    between atoms: _215  and  _217
REMARK   81  A    between atoms: _217  and  _218
REMARK   82  A    between atoms: _217  and  _220
REMARK   83  A    between atoms: _220  and  _221
REMARK   84  A    between atoms: _226  and  _227
REMARK   85  A    between atoms: _229  and  _231
REMARK   86  A    between atoms: _231  and  _232
REMARK   87  A    between atoms: _231  and  _234
REMARK   88  A    between atoms: _234  and  _235
REMARK   89  A    between atoms: _235  and  _236
REMARK   90  A    between atoms: _236  and  _237
REMARK   91  A    between atoms: _246  and  _248
REMARK   92  A    between atoms: _248  and  _249
REMARK   93  A    between atoms: _248  and  _251
REMARK   94  A    between atoms: _251  and  _252
REMARK   95  A    between atoms: _255  and  _257
REMARK   96  A    between atoms: _257  and  _258
REMARK   97  A    between atoms: _257  and  _260
REMARK   98  A    between atoms: _260  and  _261
REMARK   99  A    between atoms: _261  and  _262
REMARK  100  A    between atoms: _262  and  _263
REMARK  101  A    between atoms: _263  and  _264
REMARK  102  A    between atoms: _268  and  _270
REMARK  103  A    between atoms: _270  and  _271
REMARK  104  A    between atoms: _270  and  _273
REMARK  105  A    between atoms: _273  and  _274
REMARK  106  A    between atoms: _274  and  _275
REMARK  107  A    between atoms: _280  and  _282
REMARK  108  A    between atoms: _282  and  _283
REMARK  109  A    between atoms: _282  and  _285
REMARK  110  A    between atoms: _285  and  _286
REMARK  111  A    between atoms: _289  and  _291
REMARK  112  A    between atoms: _291  and  _292
REMARK  113  A    between atoms: _291  and  _294
REMARK  114  A    between atoms: _294  and  _295
REMARK  115  A    between atoms: _295  and  _296
REMARK  116  A    between atoms: _299  and  _301
REMARK  117  A    between atoms: _301  and  _302
REMARK  118  A    between atoms: _301  and  _304
REMARK  119  A    between atoms: _304  and  _305
REMARK  120  A    between atoms: _308  and  _310
REMARK  121  A    between atoms: _310  and  _311
REMARK  122  A    between atoms: _310  and  _313
REMARK  123  A    between atoms: _313  and  _314
REMARK  124  A    between atoms: _317  and  _319
REMARK  125  A    between atoms: _319  and  _320
REMARK  126  A    between atoms: _319  and  _322
REMARK  127  A    between atoms: _325  and  _327
REMARK  128  A    between atoms: _327  and  _328
REMARK  129  A    between atoms: _327  and  _330
REMARK  130  A    between atoms: _333  and  _335
REMARK  131  A    between atoms: _335  and  _336
REMARK  132  A    between atoms: _339  and  _341
REMARK  133  A    between atoms: _341  and  _342
REMARK  134  A    between atoms: _341  and  _344
REMARK  135  A    between atoms: _344  and  _345
REMARK  136  A    between atoms: _350  and  _352
REMARK  137  A    between atoms: _352  and  _353
REMARK  138  A    between atoms: _352  and  _355
REMARK  139  A    between atoms: _355  and  _356
REMARK  140  A    between atoms: _360  and  ZN_772
REMARK  141  A    between atoms: _361  and  _363
REMARK  142  A    between atoms: _363  and  _364
REMARK  143  A    between atoms: _363  and  _366
REMARK  144  A    between atoms: _366  and  _367
REMARK  145  A    between atoms: _367  and  _368
REMARK  146  A    between atoms: _371  and  _373
REMARK  147  A    between atoms: _373  and  _374
REMARK  148  A    between atoms: _373  and  _376
REMARK  149  A    between atoms: _376  and  _377
REMARK  150  A    between atoms: _377  and  _378
REMARK  151  A    between atoms: _380  and  _382
REMARK  152  A    between atoms: _382  and  _383
REMARK  153  A    between atoms: _382  and  _385
REMARK  154  A    between atoms: _385  and  _386
REMARK  155  A    between atoms: _390  and  ZN_772
REMARK  156  A    between atoms: _391  and  _393
REMARK  157  A    between atoms: _393  and  _394
REMARK  158  A    between atoms: _393  and  _396
REMARK  159  A    between atoms: _396  and  _397
REMARK  160  A    between atoms: _400  and  _402
REMARK  161  A    between atoms: _402  and  _403
REMARK  162  A    between atoms: _402  and  _405
REMARK  163  A    between atoms: _405  and  _406
REMARK  164  A    between atoms: _411  and  _412
REMARK  165  A    between atoms: _414  and  _416
REMARK  166  A    between atoms: _416  and  _417
REMARK  167  A    between atoms: _416  and  _419
REMARK  168  A    between atoms: _419  and  _420
REMARK  169  A    between atoms: _426  and  _428
REMARK  170  A    between atoms: _428  and  _429
REMARK  171  A    between atoms: _428  and  _431
REMARK  172  A    between atoms: _431  and  _432
REMARK  173  A    between atoms: _437  and  _438
REMARK  174  A    between atoms: _440  and  _442
REMARK  175  A    between atoms: _442  and  _443
REMARK  176  A    between atoms: _442  and  _445
REMARK  177  A    between atoms: _445  and  _446
REMARK  178  A    between atoms: _446  and  _447
REMARK  179  A    between atoms: _447  and  _448
REMARK  180  A    between atoms: _457  and  _459
REMARK  181  A    between atoms: _459  and  _460
REMARK  182  A    between atoms: _459  and  _462
REMARK  183  A    between atoms: _462  and  _463
REMARK  184  A    between atoms: _463  and  _464
REMARK  185  A    between atoms: _467  and  _469
REMARK  186  A    between atoms: _469  and  _470
REMARK  187  A    between atoms: _472  and  _474
REMARK  188  A    between atoms: _474  and  _475
REMARK  189  A    between atoms: _474  and  _477
REMARK  190  A    between atoms: _477  and  _478
REMARK  191  A    between atoms: _484  and  _485
REMARK  192  A    between atoms: _490  and  _492
REMARK  193  A    between atoms: _492  and  _493
REMARK  194  A    between atoms: _495  and  _497
REMARK  195  A    between atoms: _497  and  _498
REMARK  196  A    between atoms: _497  and  _500
REMARK  197  A    between atoms: _500  and  _501
REMARK  198  A    between atoms: _507  and  _509
REMARK  199  A    between atoms: _509  and  _510
REMARK  200  A    between atoms: _509  and  _512
REMARK  201  A    between atoms: _512  and  _513
REMARK  202  A    between atoms: _518  and  _520
REMARK  203  A    between atoms: _520  and  _521
REMARK  204  A    between atoms: _520  and  _523
REMARK  205  A    between atoms: _523  and  _524
REMARK  206  A    between atoms: _524  and  _525
REMARK  207  A    between atoms: _525  and  _526
REMARK  208  A    between atoms: _526  and  ZN_772
REMARK  209  A    between atoms: _528  and  _530
REMARK  210  A    between atoms: _530  and  _531
REMARK  211  A    between atoms: _534  and  _536
REMARK  212  A    between atoms: _536  and  _537
REMARK  213  A    between atoms: _539  and  _541
REMARK  214  A    between atoms: _541  and  _542
REMARK  215  A    between atoms: _541  and  _544
REMARK  216  A    between atoms: _544  and  _545
REMARK  217  A    between atoms: _548  and  _550
REMARK  218  A    between atoms: _550  and  _551
REMARK  219  A    between atoms: _554  and  _556
REMARK  220  A    between atoms: _556  and  _557
REMARK  221  A    between atoms: _556  and  _559
REMARK  222  A    between atoms: _559  and  _560
REMARK  223  A    between atoms: _563  and  _565
REMARK  224  A    between atoms: _565  and  _566
REMARK  225  A    between atoms: _565  and  _568
REMARK  226  A    between atoms: _568  and  _569
REMARK  227  A    between atoms: _569  and  _570
REMARK  228  A    between atoms: _570  and  _571
REMARK  229  A    between atoms: _571  and  _572
REMARK  230  A    between atoms: _576  and  _578
REMARK  231  A    between atoms: _578  and  _579
REMARK  232  A    between atoms: _578  and  _581
REMARK  233  A    between atoms: _581  and  _582
REMARK  234  A    between atoms: _588  and  _590
REMARK  235  A    between atoms: _590  and  _591
REMARK  236  A    between atoms: _590  and  _593
REMARK  237  A    between atoms: _593  and  _594
REMARK  238  A    between atoms: _600  and  _602
REMARK  239  A    between atoms: _602  and  _603
REMARK  240  A    between atoms: _602  and  _605
REMARK  241  A    between atoms: _605  and  _606
REMARK  242  A    between atoms: _608  and  _610
REMARK  243  A    between atoms: _610  and  _611
REMARK  244  A    between atoms: _610  and  _613
REMARK  245  A    between atoms: _616  and  _618
REMARK  246  A    between atoms: _618  and  _619
REMARK  247  A    between atoms: _618  and  _621
REMARK  248  A    between atoms: _621  and  _622
REMARK  249  A    between atoms: _622  and  _623
REMARK  250  A    between atoms: _623  and  _624
REMARK  251  A    between atoms: _624  and  _625
REMARK  252  A    between atoms: _629  and  _631
REMARK  253  A    between atoms: _631  and  _632
REMARK  254  A    between atoms: _631  and  _634
REMARK  255  A    between atoms: _634  and  _635
REMARK  256  A    between atoms: _641  and  _643
REMARK  257  A    between atoms: _643  and  _644
REMARK  258  A    between atoms: _643  and  _646
REMARK  259  A    between atoms: _646  and  _647
REMARK  260  A    between atoms: _652  and  _654
REMARK  261  A    between atoms: _654  and  _655
REMARK  262  A    between atoms: _654  and  _657
REMARK  263  A    between atoms: _657  and  _658
REMARK  264  A    between atoms: _660  and  _662
REMARK  265  A    between atoms: _662  and  _663
REMARK  266  A    between atoms: _662  and  _665
REMARK  267  A    between atoms: _665  and  _666
REMARK  268  A    between atoms: _668  and  _670
REMARK  269  A    between atoms: _670  and  _671
REMARK  270  A    between atoms: _670  and  _673
REMARK  271  A    between atoms: _677  and  _678
REMARK  272  A    between atoms: _683  and  _685
REMARK  273  A    between atoms: _685  and  _686
REMARK  274  A    between atoms: _685  and  _688
REMARK  275  A    between atoms: _688  and  _689
REMARK  276  A    between atoms: _694  and  _695
REMARK  277  A    between atoms: _697  and  _699
REMARK  278  A    between atoms: _699  and  _700
REMARK  279  A    between atoms: _699  and  _702
REMARK  280  A    between atoms: _702  and  _703
REMARK  281  A    between atoms: _703  and  _704
REMARK  282  A    between atoms: _704  and  _705
REMARK  283  A    between atoms: _714  and  _716
REMARK  284  A    between atoms: _716  and  _717
REMARK  285  A    between atoms: _716  and  _719
REMARK  286  A    between atoms: _719  and  _720
REMARK  287  A    between atoms: _725  and  _726
REMARK  288  A    between atoms: _728  and  _730
REMARK  289  A    between atoms: _730  and  _731
REMARK  290  A    between atoms: _730  and  _733
REMARK  291  A    between atoms: _733  and  _734
REMARK  292  A    between atoms: _740  and  _742
REMARK  293  A    between atoms: _742  and  _743
REMARK  294  A    between atoms: _742  and  _745
REMARK  295  A    between atoms: _745  and  _746
REMARK  296  A    between atoms: _748  and  _750
REMARK  297  A    between atoms: _750  and  _751
REMARK  298  A    between atoms: _750  and  _753
REMARK  299  A    between atoms: _753  and  _754
REMARK  300  A    between atoms: _760  and  _762
REMARK  301  A    between atoms: _762  and  _763
REMARK  302  A    between atoms: _762  and  _765
REMARK  303  A    between atoms: _765  and  _766
REMARK  304  A    between atoms: _766  and  _767
REMARK                            x       y       z     vdW  Elec       q    Type
REMARK                         _______ _______ _______ _____ _____    ______ ____
ROOT
ATOM      1  O   HOH     1      13.700  -8.338 -30.130  0.00  0.00    +0.000 OA
ENDROOT
TORSDOF 0
REMARK  Name = ../refined-set-2016/2xy9/2xy9_pocket.pdb
REMARK  304 active torsions:
REMARK  status: ('A' for Active; 'I' for Inactive)
REMARK    1  A    between atoms: _1  and  _3
REMARK    2  A    between atoms: _3  and  _4
REMARK    3  A    between atoms: _3  and  _6
REMARK    4  A    between atoms: _6  and  _7
REMARK    5  A    between atoms: _12  and  _14
REMARK    6  A    between atoms: _14  and  _15
REMARK    7  A    between atoms: _14  and  _17
REMARK    8  A    between atoms: _17  and  _18
REMARK    9  A    between atoms: _23  and  _25
REMARK   10  A    between atoms: _25  and  _26
REMARK   11  A    between atoms: _25  and  _28
REMARK   12  A    between atoms: _28  and  _29
REMARK   13  A    between atoms: _29  and  _30
REMARK   14  A    between atoms: _33  and  _35
REMARK   15  A    between atoms: _35  and  _36
REMARK   16  A    between atoms: _35  and  _38
REMARK   17  A    between atoms: _38  and  _39
REMARK   18  A    between atoms: _44  and  _45
REMARK   19  A    between atoms: _47  and  _49
REMARK   20  A    between atoms: _49  and  _50
REMARK   21  A    between atoms: _49  and  _52
REMARK   22  A    between atoms: _52  and  _53
REMARK   23  A    between atoms: _56  and  _58
REMARK   24  A    between atoms: _58  and  _59
REMARK   25  A    between atoms: _61  and  _63
REMARK   26  A    between atoms: _63  and  _64
REMARK   27  A    between atoms: _63  and  _66
REMARK   28  A    between atoms: _66  and  _67
REMARK   29  A    between atoms: _72  and  _74
REMARK   30  A    between atoms: _74  and  _75
REMARK   31  A    between atoms: _74  and  _77
REMARK   32  A    between atoms: _77  and  _78
REMARK   33  A    between atoms: _88  and  _90
REMARK   34  A    between atoms: _90  and  _91
REMARK   35  A    between atoms: _90  and  _93
REMARK   36  A    between atoms: _93  and  _94
REMARK   37  A    between atoms: _94  and  _95
REMARK   38  A    between atoms: _100  and  _102
REMARK   39  A    between atoms: _102  and  _103
REMARK   40  A    between atoms: _102  and  _105
REMARK   41  A    between atoms: _105  and  _106
REMARK   42  A    between atoms: _109  and  _111
REMARK   43  A    between atoms: _111  and  _112
REMARK   44  A    between atoms: _111  and  _114
REMARK   45  A    between atoms: _114  and  _115
REMARK   46  A    between atoms: _125  and  _127
REMARK   47  A    between atoms: _127  and  _128
REMARK   48  A    between atoms: _127  and  _130
REMARK   49  A    between atoms: _130  and  _131
REMARK   50  A    between atoms: _133  and  _135
REMARK   51  A    between atoms: _135  and  _136
REMARK   52  A    between atoms: _135  and  _138
REMARK   53  A    between atoms: _138  and  _139
REMARK   54  A    between atoms: _144  and  _146
REMARK   55  A    between atoms: _146  and  _147
REMARK   56  A    between atoms: _146  and  _149
REMARK   57  A    between atoms: _152  and  _154
REMARK   58  A    between atoms: _154  and  _155
REMARK   59  A    between atoms: _154  and  _157
REMARK   60  A    between atoms: _159  and  _161
REMARK   61  A    between atoms: _161  and  _162
REMARK   62  A    between atoms: _161  and  _164
REMARK   63  A    between atoms: _164  and  _165
REMARK   64  A    between atoms: _170  and  _172
REMARK   65  A    between atoms: _172  and  _173
REMARK   66  A    between atoms: _176  and  _178
REMARK   67  A    between atoms: _178  and  _179
REMARK   68  A    between atoms: _178  and  _181
REMARK   69  A    between atoms: _181  and  _182
REMARK   70  A    between atoms: _184  and  _186
REMARK   71  A    between atoms: _186  and  _187
REMARK   72  A    between atoms: _190  and  _192
REMARK   73  A    between atoms: _192  and  _193
REMARK   74  A    between atoms: _192  and  _195
REMARK   75  A    between atoms: _195  and  _196
REMARK   76  A    between atoms: _206  and  _208
REMARK   77  A    between atoms: _208  and  _209
REMARK   78  A    between atoms: _208  and  _211
REMARK   79  A    between atoms: _211  and  _212
REMARK   80  A    between atoms: _215  and  _217
REMARK   81  A    between atoms: _217  and  _218
REMARK   82  A    between atoms: _217  and  _220
REMARK   83  A    between atoms: _220  and  _221
REMARK   84  A    between atoms: _226  and  _227
REMARK   85  A    between atoms: _229  and  _231
REMARK   86  A    between atoms: _231  and  _232
REMARK   87  A    between atoms: _231  and  _234
REMARK   88  A    between atoms: _234  and  _235
REMARK   89  A    between atoms: _235  and  _236
REMARK   90  A    between atoms: _236  and  _237
REMARK   91  A    between atoms: _246  and  _248
REMARK   92  A    between atoms: _248  and  _249
REMARK   93  A    between atoms: _248  and  _251
REMARK   94  A    between atoms: _251  and  _252
REMARK   95  A    between atoms: _255  and  _257
REMARK   96  A    between atoms: _257  and  _258
REMARK   97  A    between atoms: _257  and  _260
REMARK   98  A    between atoms: _260  and  _261
REMARK   99  A    between atoms: _261  and  _262
REMARK  100  A    between atoms: _262  and  _263
REMARK  101  A    between atoms: _263  and  _264
REMARK  102  A    between atoms: _268  and  _270
REMARK  103  A    between atoms: _270  and  _271
REMARK  104  A    between atoms: _270  and  _273
REMARK  105  A    between atoms: _273  and  _274
REMARK  106  A    between atoms: _274  and  _275
REMARK  107  A    between atoms: _280  and  _282
REMARK  108  A    between atoms: _282  and  _283
REMARK  109  A    between atoms: _282  and  _285
REMARK  110  A    between atoms: _285  and  _286
REMARK  111  A    between atoms: _289  and  _291
REMARK  112  A    between atoms: _291  and  _292
REMARK  113  A    between atoms: _291  and  _294
REMARK  114  A    between atoms: _294  and  _295
REMARK  115  A    between atoms: _295  and  _296
REMARK  116  A    between atoms: _299  and  _301
REMARK  117  A    between atoms: _301  and  _302
REMARK  118  A    between atoms: _301  and  _304
REMARK  119  A    between atoms: _304  and  _305
REMARK  120  A    between atoms: _308  and  _310
REMARK  121  A    between atoms: _310  and  _311
REMARK  122  A    between atoms: _310  and  _313
REMARK  123  A    between atoms: _313  and  _314
REMARK  124  A    between atoms: _317  and  _319
REMARK  125  A    between atoms: _319  and  _320
REMARK  126  A    between atoms: _319  and  _322
REMARK  127  A    between atoms: _325  and  _327
REMARK  128  A    between atoms: _327  and  _328
REMARK  129  A    between atoms: _327  and  _330
REMARK  130  A    between atoms: _333  and  _335
REMARK  131  A    between atoms: _335  and  _336
REMARK  132  A    between atoms: _339  and  _341
REMARK  133  A    between atoms: _341  and  _342
REMARK  134  A    between atoms: _341  and  _344
REMARK  135  A    between atoms: _344  and  _345
REMARK  136  A    between atoms: _350  and  _352
REMARK  137  A    between atoms: _352  and  _353
REMARK  138  A    between atoms: _352  and  _355
REMARK  139  A    between atoms: _355  and  _356
REMARK  140  A    between atoms: _360  and  ZN_772
REMARK  141  A    between atoms: _361  and  _363
REMARK  142  A    between atoms: _363  and  _364
REMARK  143  A    between atoms: _363  and  _366
REMARK  144  A    between atoms: _366  and  _367
REMARK  145  A    between atoms: _367  and  _368
REMARK  146  A    between atoms: _371  and  _373
REMARK  147  A    between atoms: _373  and  _374
REMARK  148  A    between atoms: _373  and  _376
REMARK  149  A    between atoms: _376  and  _377
REMARK  150  A    between atoms: _377  and  _378
REMARK  151  A    between atoms: _380  and  _382
REMARK  152  A    between atoms: _382  and  _383
REMARK  153  A    between atoms: _382  and  _385
REMARK  154  A    between atoms: _385  and  _386
REMARK  155  A    between atoms: _390  and  ZN_772
REMARK  156  A    between atoms: _391  and  _393
REMARK  157  A    between atoms: _393  and  _394
REMARK  158  A    between atoms: _393  and  _396
REMARK  159  A    between atoms: _396  and  _397
REMARK  160  A    between atoms: _400  and  _402
REMARK  161  A    between atoms: _402  and  _403
REMARK  162  A    between atoms: _402  and  _405
REMARK  163  A    between atoms: _405  and  _406
REMARK  164  A    between atoms: _411  and  _412
REMARK  165  A    between atoms: _414  and  _416
REMARK  166  A    between atoms: _416  and  _417
REMARK  167  A    between atoms: _416  and  _419
REMARK  168  A    between atoms: _419  and  _420
REMARK  169  A    between atoms: _426  and  _428
REMARK  170  A    between atoms: _428  and  _429
REMARK  171  A    between atoms: _428  and  _431
REMARK  172  A    between atoms: _431  and  _432
REMARK  173  A    between atoms: _437  and  _438
REMARK  174  A    between atoms: _440  and  _442
REMARK  175  A    between atoms: _442  and  _443
REMARK  176  A    between atoms: _442  and  _445
REMARK  177  A    between atoms: _445  and  _446
REMARK  178  A    between atoms: _446  and  _447
REMARK  179  A    between atoms: _447  and  _448
REMARK  180  A    between atoms: _457  and  _459
REMARK  181  A    between atoms: _459  and  _460
REMARK  182  A    between atoms: _459  and  _462
REMARK  183  A    between atoms: _462  and  _463
REMARK  184  A    between atoms: _463  and  _464
REMARK  185  A    between atoms: _467  and  _469
REMARK  186  A    between atoms: _469  and  _470
REMARK  187  A    between atoms: _472  and  _474
REMARK  188  A    between atoms: _474  and  _475
REMARK  189  A    between atoms: _474  and  _477
REMARK  190  A    between atoms: _477  and  _478
REMARK  191  A    between atoms: _484  and  _485
REMARK  192  A    between atoms: _490  and  _492
REMARK  193  A    between atoms: _492  and  _493
REMARK  194  A    between atoms: _495  and  _497
REMARK  195  A    between atoms: _497  and  _498
REMARK  196  A    between atoms: _497  and  _500
REMARK  197  A    between atoms: _500  and  _501
REMARK  198  A    between atoms: _507  and  _509
REMARK  199  A    between atoms: _509  and  _510
REMARK  200  A    between atoms: _509  and  _512
REMARK  201  A    between atoms: _512  and  _513
REMARK  202  A    between atoms: _518  and  _520
REMARK  203  A    between atoms: _520  and  _521
REMARK  204  A    between atoms: _520  and  _523
REMARK  205  A    between atoms: _523  and  _524
REMARK  206  A    between atoms: _524  and  _525
REMARK  207  A    between atoms: _525  and  _526
REMARK  208  A    between atoms: _526  and  ZN_772
REMARK  209  A    between atoms: _528  and  _530
REMARK  210  A    between atoms: _530  and  _531
REMARK  211  A    between atoms: _534  and  _536
REMARK  212  A    between atoms: _536  and  _537
REMARK  213  A    between atoms: _539  and  _541
REMARK  214  A    between atoms: _541  and  _542
REMARK  215  A    between atoms: _541  and  _544
REMARK  216  A    between atoms: _544  and  _545
REMARK  217  A    between atoms: _548  and  _550
REMARK  218  A    between atoms: _550  and  _551
REMARK  219  A    between atoms: _554  and  _556
REMARK  220  A    between atoms: _556  and  _557
REMARK  221  A    between atoms: _556  and  _559
REMARK  222  A    between atoms: _559  and  _560
REMARK  223  A    between atoms: _563  and  _565
REMARK  224  A    between atoms: _565  and  _566
REMARK  225  A    between atoms: _565  and  _568
REMARK  226  A    between atoms: _568  and  _569
REMARK  227  A    between atoms: _569  and  _570
REMARK  228  A    between atoms: _570  and  _571
REMARK  229  A    between atoms: _571  and  _572
REMARK  230  A    between atoms: _576  and  _578
REMARK  231  A    between atoms: _578  and  _579
REMARK  232  A    between atoms: _578  and  _581
REMARK  233  A    between atoms: _581  and  _582
REMARK  234  A    between atoms: _588  and  _590
REMARK  235  A    between atoms: _590  and  _591
REMARK  236  A    between atoms: _590  and  _593
REMARK  237  A    between atoms: _593  and  _594
REMARK  238  A    between atoms: _600  and  _602
REMARK  239  A    between atoms: _602  and  _603
REMARK  240  A    between atoms: _602  and  _605
REMARK  241  A    between atoms: _605  and  _606
REMARK  242  A    between atoms: _608  and  _610
REMARK  243  A    between atoms: _610  and  _611
REMARK  244  A    between atoms: _610  and  _613
REMARK  245  A    between atoms: _616  and  _618
REMARK  246  A    between atoms: _618  and  _619
REMARK  247  A    between atoms: _618  and  _621
REMARK  248  A    between atoms: _621  and  _622
REMARK  249  A    between atoms: _622  and  _623
REMARK  250  A    between atoms: _623  and  _624
REMARK  251  A    between atoms: _624  and  _625
REMARK  252  A    between atoms: _629  and  _631
REMARK  253  A    between atoms: _631  and  _632
REMARK  254  A    between atoms: _631  and  _634
REMARK  255  A    between atoms: _634  and  _635
REMARK  256  A    between atoms: _641  and  _643
REMARK  257  A    between atoms: _643  and  _644
REMARK  258  A    between atoms: _643  and  _646
REMARK  259  A    between atoms: _646  and  _647
REMARK  260  A    between atoms: _652  and  _654
REMARK  261  A    between atoms: _654  and  _655
REMARK  262  A    between atoms: _654  and  _657
REMARK  263  A    between atoms: _657  and  _658
REMARK  264  A    between atoms: _660  and  _662
REMARK  265  A    between atoms: _662  and  _663
REMARK  266  A    between atoms: _662  and  _665
REMARK  267  A    between atoms: _665  and  _666
REMARK  268  A    between atoms: _668  and  _670
REMARK  269  A    between atoms: _670  and  _671
REMARK  270  A    between atoms: _670  and  _673
REMARK  271  A    between atoms: _677  and  _678
REMARK  272  A    between atoms: _683  and  _685
REMARK  273  A    between atoms: _685  and  _686
REMARK  274  A    between atoms: _685  and  _688
REMARK  275  A    between atoms: _688  and  _689
REMARK  276  A    between atoms: _694  and  _695
REMARK  277  A    between atoms: _697  and  _699
REMARK  278  A    between atoms: _699  and  _700
REMARK  279  A    between atoms: _699  and  _702
REMARK  280  A    between atoms: _702  and  _703
REMARK  281  A    between atoms: _703  and  _704
REMARK  282  A    between atoms: _704  and  _705
REMARK  283  A    between atoms: _714  and  _716
REMARK  284  A    between atoms: _716  and  _717
REMARK  285  A    between atoms: _716  and  _719
REMARK  286  A    between atoms: _719  and  _720
REMARK  287  A    between atoms: _725  and  _726
REMARK  288  A    between atoms: _728  and  _730
REMARK  289  A    between atoms: _730  and  _731
REMARK  290  A    between atoms: _730  and  _733
REMARK  291  A    between atoms: _733  and  _734
REMARK  292  A    between atoms: _740  and  _742
REMARK  293  A    between atoms: _742  and  _743
REMARK  294  A    between atoms: _742  and  _745
REMARK  295  A    between atoms: _745  and  _746
REMARK  296  A    between atoms: _748  and  _750
REMARK  297  A    between atoms: _750  and  _751
REMARK  298  A    between atoms: _750  and  _753
REMARK  299  A    between atoms: _753  and  _754
REMARK  300  A    between atoms: _760  and  _762
REMARK  301  A    between atoms: _762  and  _763
REMARK  302  A    between atoms: _762  and  _765
REMARK  303  A    between atoms: _765  and  _766
REMARK  304  A    between atoms: _766  and  _767
REMARK                            x       y       z     vdW  Elec       q    Type
REMARK                         _______ _______ _______ _____ _____    ______ ____
ROOT
ATOM      1  O   HOH     1      14.139 -13.278 -35.040  0.00  0.00    +0.000 OA
ENDROOT
TORSDOF 0
REMARK  Name = ../refined-set-2016/2xy9/2xy9_pocket.pdb
REMARK  304 active torsions:
REMARK  status: ('A' for Active; 'I' for Inactive)
REMARK    1  A    between atoms: _1  and  _3
REMARK    2  A    between atoms: _3  and  _4
REMARK    3  A    between atoms: _3  and  _6
REMARK    4  A    between atoms: _6  and  _7
REMARK    5  A    between atoms: _12  and  _14
REMARK    6  A    between atoms: _14  and  _15
REMARK    7  A    between atoms: _14  and  _17
REMARK    8  A    between atoms: _17  and  _18
REMARK    9  A    between atoms: _23  and  _25
REMARK   10  A    between atoms: _25  and  _26
REMARK   11  A    between atoms: _25  and  _28
REMARK   12  A    between atoms: _28  and  _29
REMARK   13  A    between atoms: _29  and  _30
REMARK   14  A    between atoms: _33  and  _35
REMARK   15  A    between atoms: _35  and  _36
REMARK   16  A    between atoms: _35  and  _38
REMARK   17  A    between atoms: _38  and  _39
REMARK   18  A    between atoms: _44  and  _45
REMARK   19  A    between atoms: _47  and  _49
REMARK   20  A    between atoms: _49  and  _50
REMARK   21  A    between atoms: _49  and  _52
REMARK   22  A    between atoms: _52  and  _53
REMARK   23  A    between atoms: _56  and  _58
REMARK   24  A    between atoms: _58  and  _59
REMARK   25  A    between atoms: _61  and  _63
REMARK   26  A    between atoms: _63  and  _64
REMARK   27  A    between atoms: _63  and  _66
REMARK   28  A    between atoms: _66  and  _67
REMARK   29  A    between atoms: _72  and  _74
REMARK   30  A    between atoms: _74  and  _75
REMARK   31  A    between atoms: _74  and  _77
REMARK   32  A    between atoms: _77  and  _78
REMARK   33  A    between atoms: _88  and  _90
REMARK   34  A    between atoms: _90  and  _91
REMARK   35  A    between atoms: _90  and  _93
REMARK   36  A    between atoms: _93  and  _94
REMARK   37  A    between atoms: _94  and  _95
REMARK   38  A    between atoms: _100  and  _102
REMARK   39  A    between atoms: _102  and  _103
REMARK   40  A    between atoms: _102  and  _105
REMARK   41  A    between atoms: _105  and  _106
REMARK   42  A    between atoms: _109  and  _111
REMARK   43  A    between atoms: _111  and  _112
REMARK   44  A    between atoms: _111  and  _114
REMARK   45  A    between atoms: _114  and  _115
REMARK   46  A    between atoms: _125  and  _127
REMARK   47  A    between atoms: _127  and  _128
REMARK   48  A    between atoms: _127  and  _130
REMARK   49  A    between atoms: _130  and  _131
REMARK   50  A    between atoms: _133  and  _135
REMARK   51  A    between atoms: _135  and  _136
REMARK   52  A    between atoms: _135  and  _138
REMARK   53  A    between atoms: _138  and  _139
REMARK   54  A    between atoms: _144  and  _146
REMARK   55  A    between atoms: _146  and  _147
REMARK   56  A    between atoms: _146  and  _149
REMARK   57  A    between atoms: _152  and  _154
REMARK   58  A    between atoms: _154  and  _155
REMARK   59  A    between atoms: _154  and  _157
REMARK   60  A    between atoms: _159  and  _161
REMARK   61  A    between atoms: _161  and  _162
REMARK   62  A    between atoms: _161  and  _164
REMARK   63  A    between atoms: _164  and  _165
REMARK   64  A    between atoms: _170  and  _172
REMARK   65  A    between atoms: _172  and  _173
REMARK   66  A    between atoms: _176  and  _178
REMARK   67  A    between atoms: _178  and  _179
REMARK   68  A    between atoms: _178  and  _181
REMARK   69  A    between atoms: _181  and  _182
REMARK   70  A    between atoms: _184  and  _186
REMARK   71  A    between atoms: _186  and  _187
REMARK   72  A    between atoms: _190  and  _192
REMARK   73  A    between atoms: _192  and  _193
REMARK   74  A    between atoms: _192  and  _195
REMARK   75  A    between atoms: _195  and  _196
REMARK   76  A    between atoms: _206  and  _208
REMARK   77  A    between atoms: _208  and  _209
REMARK   78  A    between atoms: _208  and  _211
REMARK   79  A    between atoms: _211  and  _212
REMARK   80  A    between atoms: _215  and  _217
REMARK   81  A    between atoms: _217  and  _218
REMARK   82  A    between atoms: _217  and  _220
REMARK   83  A    between atoms: _220  and  _221
REMARK   84  A    between atoms: _226  and  _227
REMARK   85  A    between atoms: _229  and  _231
REMARK   86  A    between atoms: _231  and  _232
REMARK   87  A    between atoms: _231  and  _234
REMARK   88  A    between atoms: _234  and  _235
REMARK   89  A    between atoms: _235  and  _236
REMARK   90  A    between atoms: _236  and  _237
REMARK   91  A    between atoms: _246  and  _248
REMARK   92  A    between atoms: _248  and  _249
REMARK   93  A    between atoms: _248  and  _251
REMARK   94  A    between atoms: _251  and  _252
REMARK   95  A    between atoms: _255  and  _257
REMARK   96  A    between atoms: _257  and  _258
REMARK   97  A    between atoms: _257  and  _260
REMARK   98  A    between atoms: _260  and  _261
REMARK   99  A    between atoms: _261  and  _262
REMARK  100  A    between atoms: _262  and  _263
REMARK  101  A    between atoms: _263  and  _264
REMARK  102  A    between atoms: _268  and  _270
REMARK  103  A    between atoms: _270  and  _271
REMARK  104  A    between atoms: _270  and  _273
REMARK  105  A    between atoms: _273  and  _274
REMARK  106  A    between atoms: _274  and  _275
REMARK  107  A    between atoms: _280  and  _282
REMARK  108  A    between atoms: _282  and  _283
REMARK  109  A    between atoms: _282  and  _285
REMARK  110  A    between atoms: _285  and  _286
REMARK  111  A    between atoms: _289  and  _291
REMARK  112  A    between atoms: _291  and  _292
REMARK  113  A    between atoms: _291  and  _294
REMARK  114  A    between atoms: _294  and  _295
REMARK  115  A    between atoms: _295  and  _296
REMARK  116  A    between atoms: _299  and  _301
REMARK  117  A    between atoms: _301  and  _302
REMARK  118  A    between atoms: _301  and  _304
REMARK  119  A    between atoms: _304  and  _305
REMARK  120  A    between atoms: _308  and  _310
REMARK  121  A    between atoms: _310  and  _311
REMARK  122  A    between atoms: _310  and  _313
REMARK  123  A    between atoms: _313  and  _314
REMARK  124  A    between atoms: _317  and  _319
REMARK  125  A    between atoms: _319  and  _320
REMARK  126  A    between atoms: _319  and  _322
REMARK  127  A    between atoms: _325  and  _327
REMARK  128  A    between atoms: _327  and  _328
REMARK  129  A    between atoms: _327  and  _330
REMARK  130  A    between atoms: _333  and  _335
REMARK  131  A    between atoms: _335  and  _336
REMARK  132  A    between atoms: _339  and  _341
REMARK  133  A    between atoms: _341  and  _342
REMARK  134  A    between atoms: _341  and  _344
REMARK  135  A    between atoms: _344  and  _345
REMARK  136  A    between atoms: _350  and  _352
REMARK  137  A    between atoms: _352  and  _353
REMARK  138  A    between atoms: _352  and  _355
REMARK  139  A    between atoms: _355  and  _356
REMARK  140  A    between atoms: _360  and  ZN_772
REMARK  141  A    between atoms: _361  and  _363
REMARK  142  A    between atoms: _363  and  _364
REMARK  143  A    between atoms: _363  and  _366
REMARK  144  A    between atoms: _366  and  _367
REMARK  145  A    between atoms: _367  and  _368
REMARK  146  A    between atoms: _371  and  _373
REMARK  147  A    between atoms: _373  and  _374
REMARK  148  A    between atoms: _373  and  _376
REMARK  149  A    between atoms: _376  and  _377
REMARK  150  A    between atoms: _377  and  _378
REMARK  151  A    between atoms: _380  and  _382
REMARK  152  A    between atoms: _382  and  _383
REMARK  153  A    between atoms: _382  and  _385
REMARK  154  A    between atoms: _385  and  _386
REMARK  155  A    between atoms: _390  and  ZN_772
REMARK  156  A    between atoms: _391  and  _393
REMARK  157  A    between atoms: _393  and  _394
REMARK  158  A    between atoms: _393  and  _396
REMARK  159  A    between atoms: _396  and  _397
REMARK  160  A    between atoms: _400  and  _402
REMARK  161  A    between atoms: _402  and  _403
REMARK  162  A    between atoms: _402  and  _405
REMARK  163  A    between atoms: _405  and  _406
REMARK  164  A    between atoms: _411  and  _412
REMARK  165  A    between atoms: _414  and  _416
REMARK  166  A    between atoms: _416  and  _417
REMARK  167  A    between atoms: _416  and  _419
REMARK  168  A    between atoms: _419  and  _420
REMARK  169  A    between atoms: _426  and  _428
REMARK  170  A    between atoms: _428  and  _429
REMARK  171  A    between atoms: _428  and  _431
REMARK  172  A    between atoms: _431  and  _432
REMARK  173  A    between atoms: _437  and  _438
REMARK  174  A    between atoms: _440  and  _442
REMARK  175  A    between atoms: _442  and  _443
REMARK  176  A    between atoms: _442  and  _445
REMARK  177  A    between atoms: _445  and  _446
REMARK  178  A    between atoms: _446  and  _447
REMARK  179  A    between atoms: _447  and  _448
REMARK  180  A    between atoms: _457  and  _459
REMARK  181  A    between atoms: _459  and  _460
REMARK  182  A    between atoms: _459  and  _462
REMARK  183  A    between atoms: _462  and  _463
REMARK  184  A    between atoms: _463  and  _464
REMARK  185  A    between atoms: _467  and  _469
REMARK  186  A    between atoms: _469  and  _470
REMARK  187  A    between atoms: _472  and  _474
REMARK  188  A    between atoms: _474  and  _475
REMARK  189  A    between atoms: _474  and  _477
REMARK  190  A    between atoms: _477  and  _478
REMARK  191  A    between atoms: _484  and  _485
REMARK  192  A    between atoms: _490  and  _492
REMARK  193  A    between atoms: _492  and  _493
REMARK  194  A    between atoms: _495  and  _497
REMARK  195  A    between atoms: _497  and  _498
REMARK  196  A    between atoms: _497  and  _500
REMARK  197  A    between atoms: _500  and  _501
REMARK  198  A    between atoms: _507  and  _509
REMARK  199  A    between atoms: _509  and  _510
REMARK  200  A    between atoms: _509  and  _512
REMARK  201  A    between atoms: _512  and  _513
REMARK  202  A    between atoms: _518  and  _520
REMARK  203  A    between atoms: _520  and  _521
REMARK  204  A    between atoms: _520  and  _523
REMARK  205  A    between atoms: _523  and  _524
REMARK  206  A    between atoms: _524  and  _525
REMARK  207  A    between atoms: _525  and  _526
REMARK  208  A    between atoms: _526  and  ZN_772
REMARK  209  A    between atoms: _528  and  _530
REMARK  210  A    between atoms: _530  and  _531
REMARK  211  A    between atoms: _534  and  _536
REMARK  212  A    between atoms: _536  and  _537
REMARK  213  A    between atoms: _539  and  _541
REMARK  214  A    between atoms: _541  and  _542
REMARK  215  A    between atoms: _541  and  _544
REMARK  216  A    between atoms: _544  and  _545
REMARK  217  A    between atoms: _548  and  _550
REMARK  218  A    between atoms: _550  and  _551
REMARK  219  A    between atoms: _554  and  _556
REMARK  220  A    between atoms: _556  and  _557
REMARK  221  A    between atoms: _556  and  _559
REMARK  222  A    between atoms: _559  and  _560
REMARK  223  A    between atoms: _563  and  _565
REMARK  224  A    between atoms: _565  and  _566
REMARK  225  A    between atoms: _565  and  _568
REMARK  226  A    between atoms: _568  and  _569
REMARK  227  A    between atoms: _569  and  _570
REMARK  228  A    between atoms: _570  and  _571
REMARK  229  A    between atoms: _571  and  _572
REMARK  230  A    between atoms: _576  and  _578
REMARK  231  A    between atoms: _578  and  _579
REMARK  232  A    between atoms: _578  and  _581
REMARK  233  A    between atoms: _581  and  _582
REMARK  234  A    between atoms: _588  and  _590
REMARK  235  A    between atoms: _590  and  _591
REMARK  236  A    between atoms: _590  and  _593
REMARK  237  A    between atoms: _593  and  _594
REMARK  238  A    between atoms: _600  and  _602
REMARK  239  A    between atoms: _602  and  _603
REMARK  240  A    between atoms: _602  and  _605
REMARK  241  A    between atoms: _605  and  _606
REMARK  242  A    between atoms: _608  and  _610
REMARK  243  A    between atoms: _610  and  _611
REMARK  244  A    between atoms: _610  and  _613
REMARK  245  A    between atoms: _616  and  _618
REMARK  246  A    between atoms: _618  and  _619
REMARK  247  A    between atoms: _618  and  _621
REMARK  248  A    between atoms: _621  and  _622
REMARK  249  A    between atoms: _622  and  _623
REMARK  250  A    between atoms: _623  and  _624
REMARK  251  A    between atoms: _624  and  _625
REMARK  252  A    between atoms: _629  and  _631
REMARK  253  A    between atoms: _631  and  _632
REMARK  254  A    between atoms: _631  and  _634
REMARK  255  A    between atoms: _634  and  _635
REMARK  256  A    between atoms: _641  and  _643
REMARK  257  A    between atoms: _643  and  _644
REMARK  258  A    between atoms: _643  and  _646
REMARK  259  A    between atoms: _646  and  _647
REMARK  260  A    between atoms: _652  and  _654
REMARK  261  A    between atoms: _654  and  _655
REMARK  262  A    between atoms: _654  and  _657
REMARK  263  A    between atoms: _657  and  _658
REMARK  264  A    between atoms: _660  and  _662
REMARK  265  A    between atoms: _662  and  _663
REMARK  266  A    between atoms: _662  and  _665
REMARK  267  A    between atoms: _665  and  _666
REMARK  268  A    between atoms: _668  and  _670
REMARK  269  A    between atoms: _670  and  _671
REMARK  270  A    between atoms: _670  and  _673
REMARK  271  A    between atoms: _677  and  _678
REMARK  272  A    between atoms: _683  and  _685
REMARK  273  A    between atoms: _685  and  _686
REMARK  274  A    between atoms: _685  and  _688
REMARK  275  A    between atoms: _688  and  _689
REMARK  276  A    between atoms: _694  and  _695
REMARK  277  A    between atoms: _697  and  _699
REMARK  278  A    between atoms: _699  and  _700
REMARK  279  A    between atoms: _699  and  _702
REMARK  280  A    between atoms: _702  and  _703
REMARK  281  A    between atoms: _703  and  _704
REMARK  282  A    between atoms: _704  and  _705
REMARK  283  A    between atoms: _714  and  _716
REMARK  284  A    between atoms: _716  and  _717
REMARK  285  A    between atoms: _716  and  _719
REMARK  286  A    between atoms: _719  and  _720
REMARK  287  A    between atoms: _725  and  _726
REMARK  288  A    between atoms: _728  and  _730
REMARK  289  A    between atoms: _730  and  _731
REMARK  290  A    between atoms: _730  and  _733
REMARK  291  A    between atoms: _733  and  _734
REMARK  292  A    between atoms: _740  and  _742
REMARK  293  A    between atoms: _742  and  _743
REMARK  294  A    between atoms: _742  and  _745
REMARK  295  A    between atoms: _745  and  _746
REMARK  296  A    between atoms: _748  and  _750
REMARK  297  A    between atoms: _750  and  _751
REMARK  298  A    between atoms: _750  and  _753
REMARK  299  A    between atoms: _753  and  _754
REMARK  300  A    between atoms: _760  and  _762
REMARK  301  A    between atoms: _762  and  _763
REMARK  302  A    between atoms: _762  and  _765
REMARK  303  A    between atoms: _765  and  _766
REMARK  304  A    between atoms: _766  and  _767
REMARK                            x       y       z     vdW  Elec       q    Type
REMARK                         _______ _______ _______ _____ _____    ______ ____
ROOT
ATOM      1  O   HOH     1      19.097 -16.589 -31.509  0.00  0.00    +0.000 OA
ENDROOT
TORSDOF 0
REMARK  Name = ../refined-set-2016/2xy9/2xy9_pocket.pdb
REMARK  304 active torsions:
REMARK  status: ('A' for Active; 'I' for Inactive)
REMARK    1  A    between atoms: _1  and  _3
REMARK    2  A    between atoms: _3  and  _4
REMARK    3  A    between atoms: _3  and  _6
REMARK    4  A    between atoms: _6  and  _7
REMARK    5  A    between atoms: _12  and  _14
REMARK    6  A    between atoms: _14  and  _15
REMARK    7  A    between atoms: _14  and  _17
REMARK    8  A    between atoms: _17  and  _18
REMARK    9  A    between atoms: _23  and  _25
REMARK   10  A    between atoms: _25  and  _26
REMARK   11  A    between atoms: _25  and  _28
REMARK   12  A    between atoms: _28  and  _29
REMARK   13  A    between atoms: _29  and  _30
REMARK   14  A    between atoms: _33  and  _35
REMARK   15  A    between atoms: _35  and  _36
REMARK   16  A    between atoms: _35  and  _38
REMARK   17  A    between atoms: _38  and  _39
REMARK   18  A    between atoms: _44  and  _45
REMARK   19  A    between atoms: _47  and  _49
REMARK   20  A    between atoms: _49  and  _50
REMARK   21  A    between atoms: _49  and  _52
REMARK   22  A    between atoms: _52  and  _53
REMARK   23  A    between atoms: _56  and  _58
REMARK   24  A    between atoms: _58  and  _59
REMARK   25  A    between atoms: _61  and  _63
REMARK   26  A    between atoms: _63  and  _64
REMARK   27  A    between atoms: _63  and  _66
REMARK   28  A    between atoms: _66  and  _67
REMARK   29  A    between atoms: _72  and  _74
REMARK   30  A    between atoms: _74  and  _75
REMARK   31  A    between atoms: _74  and  _77
REMARK   32  A    between atoms: _77  and  _78
REMARK   33  A    between atoms: _88  and  _90
REMARK   34  A    between atoms: _90  and  _91
REMARK   35  A    between atoms: _90  and  _93
REMARK   36  A    between atoms: _93  and  _94
REMARK   37  A    between atoms: _94  and  _95
REMARK   38  A    between atoms: _100  and  _102
REMARK   39  A    between atoms: _102  and  _103
REMARK   40  A    between atoms: _102  and  _105
REMARK   41  A    between atoms: _105  and  _106
REMARK   42  A    between atoms: _109  and  _111
REMARK   43  A    between atoms: _111  and  _112
REMARK   44  A    between atoms: _111  and  _114
REMARK   45  A    between atoms: _114  and  _115
REMARK   46  A    between atoms: _125  and  _127
REMARK   47  A    between atoms: _127  and  _128
REMARK   48  A    between atoms: _127  and  _130
REMARK   49  A    between atoms: _130  and  _131
REMARK   50  A    between atoms: _133  and  _135
REMARK   51  A    between atoms: _135  and  _136
REMARK   52  A    between atoms: _135  and  _138
REMARK   53  A    between atoms: _138  and  _139
REMARK   54  A    between atoms: _144  and  _146
REMARK   55  A    between atoms: _146  and  _147
REMARK   56  A    between atoms: _146  and  _149
REMARK   57  A    between atoms: _152  and  _154
REMARK   58  A    between atoms: _154  and  _155
REMARK   59  A    between atoms: _154  and  _157
REMARK   60  A    between atoms: _159  and  _161
REMARK   61  A    between atoms: _161  and  _162
REMARK   62  A    between atoms: _161  and  _164
REMARK   63  A    between atoms: _164  and  _165
REMARK   64  A    between atoms: _170  and  _172
REMARK   65  A    between atoms: _172  and  _173
REMARK   66  A    between atoms: _176  and  _178
REMARK   67  A    between atoms: _178  and  _179
REMARK   68  A    between atoms: _178  and  _181
REMARK   69  A    between atoms: _181  and  _182
REMARK   70  A    between atoms: _184  and  _186
REMARK   71  A    between atoms: _186  and  _187
REMARK   72  A    between atoms: _190  and  _192
REMARK   73  A    between atoms: _192  and  _193
REMARK   74  A    between atoms: _192  and  _195
REMARK   75  A    between atoms: _195  and  _196
REMARK   76  A    between atoms: _206  and  _208
REMARK   77  A    between atoms: _208  and  _209
REMARK   78  A    between atoms: _208  and  _211
REMARK   79  A    between atoms: _211  and  _212
REMARK   80  A    between atoms: _215  and  _217
REMARK   81  A    between atoms: _217  and  _218
REMARK   82  A    between atoms: _217  and  _220
REMARK   83  A    between atoms: _220  and  _221
REMARK   84  A    between atoms: _226  and  _227
REMARK   85  A    between atoms: _229  and  _231
REMARK   86  A    between atoms: _231  and  _232
REMARK   87  A    between atoms: _231  and  _234
REMARK   88  A    between atoms: _234  and  _235
REMARK   89  A    between atoms: _235  and  _236
REMARK   90  A    between atoms: _236  and  _237
REMARK   91  A    between atoms: _246  and  _248
REMARK   92  A    between atoms: _248  and  _249
REMARK   93  A    between atoms: _248  and  _251
REMARK   94  A    between atoms: _251  and  _252
REMARK   95  A    between atoms: _255  and  _257
REMARK   96  A    between atoms: _257  and  _258
REMARK   97  A    between atoms: _257  and  _260
REMARK   98  A    between atoms: _260  and  _261
REMARK   99  A    between atoms: _261  and  _262
REMARK  100  A    between atoms: _262  and  _263
REMARK  101  A    between atoms: _263  and  _264
REMARK  102  A    between atoms: _268  and  _270
REMARK  103  A    between atoms: _270  and  _271
REMARK  104  A    between atoms: _270  and  _273
REMARK  105  A    between atoms: _273  and  _274
REMARK  106  A    between atoms: _274  and  _275
REMARK  107  A    between atoms: _280  and  _282
REMARK  108  A    between atoms: _282  and  _283
REMARK  109  A    between atoms: _282  and  _285
REMARK  110  A    between atoms: _285  and  _286
REMARK  111  A    between atoms: _289  and  _291
REMARK  112  A    between atoms: _291  and  _292
REMARK  113  A    between atoms: _291  and  _294
REMARK  114  A    between atoms: _294  and  _295
REMARK  115  A    between atoms: _295  and  _296
REMARK  116  A    between atoms: _299  and  _301
REMARK  117  A    between atoms: _301  and  _302
REMARK  118  A    between atoms: _301  and  _304
REMARK  119  A    between atoms: _304  and  _305
REMARK  120  A    between atoms: _308  and  _310
REMARK  121  A    between atoms: _310  and  _311
REMARK  122  A    between atoms: _310  and  _313
REMARK  123  A    between atoms: _313  and  _314
REMARK  124  A    between atoms: _317  and  _319
REMARK  125  A    between atoms: _319  and  _320
REMARK  126  A    between atoms: _319  and  _322
REMARK  127  A    between atoms: _325  and  _327
REMARK  128  A    between atoms: _327  and  _328
REMARK  129  A    between atoms: _327  and  _330
REMARK  130  A    between atoms: _333  and  _335
REMARK  131  A    between atoms: _335  and  _336
REMARK  132  A    between atoms: _339  and  _341
REMARK  133  A    between atoms: _341  and  _342
REMARK  134  A    between atoms: _341  and  _344
REMARK  135  A    between atoms: _344  and  _345
REMARK  136  A    between atoms: _350  and  _352
REMARK  137  A    between atoms: _352  and  _353
REMARK  138  A    between atoms: _352  and  _355
REMARK  139  A    between atoms: _355  and  _356
REMARK  140  A    between atoms: _360  and  ZN_772
REMARK  141  A    between atoms: _361  and  _363
REMARK  142  A    between atoms: _363  and  _364
REMARK  143  A    between atoms: _363  and  _366
REMARK  144  A    between atoms: _366  and  _367
REMARK  145  A    between atoms: _367  and  _368
REMARK  146  A    between atoms: _371  and  _373
REMARK  147  A    between atoms: _373  and  _374
REMARK  148  A    between atoms: _373  and  _376
REMARK  149  A    between atoms: _376  and  _377
REMARK  150  A    between atoms: _377  and  _378
REMARK  151  A    between atoms: _380  and  _382
REMARK  152  A    between atoms: _382  and  _383
REMARK  153  A    between atoms: _382  and  _385
REMARK  154  A    between atoms: _385  and  _386
REMARK  155  A    between atoms: _390  and  ZN_772
REMARK  156  A    between atoms: _391  and  _393
REMARK  157  A    between atoms: _393  and  _394
REMARK  158  A    between atoms: _393  and  _396
REMARK  159  A    between atoms: _396  and  _397
REMARK  160  A    between atoms: _400  and  _402
REMARK  161  A    between atoms: _402  and  _403
REMARK  162  A    between atoms: _402  and  _405
REMARK  163  A    between atoms: _405  and  _406
REMARK  164  A    between atoms: _411  and  _412
REMARK  165  A    between atoms: _414  and  _416
REMARK  166  A    between atoms: _416  and  _417
REMARK  167  A    between atoms: _416  and  _419
REMARK  168  A    between atoms: _419  and  _420
REMARK  169  A    between atoms: _426  and  _428
REMARK  170  A    between atoms: _428  and  _429
REMARK  171  A    between atoms: _428  and  _431
REMARK  172  A    between atoms: _431  and  _432
REMARK  173  A    between atoms: _437  and  _438
REMARK  174  A    between atoms: _440  and  _442
REMARK  175  A    between atoms: _442  and  _443
REMARK  176  A    between atoms: _442  and  _445
REMARK  177  A    between atoms: _445  and  _446
REMARK  178  A    between atoms: _446  and  _447
REMARK  179  A    between atoms: _447  and  _448
REMARK  180  A    between atoms: _457  and  _459
REMARK  181  A    between atoms: _459  and  _460
REMARK  182  A    between atoms: _459  and  _462
REMARK  183  A    between atoms: _462  and  _463
REMARK  184  A    between atoms: _463  and  _464
REMARK  185  A    between atoms: _467  and  _469
REMARK  186  A    between atoms: _469  and  _470
REMARK  187  A    between atoms: _472  and  _474
REMARK  188  A    between atoms: _474  and  _475
REMARK  189  A    between atoms: _474  and  _477
REMARK  190  A    between atoms: _477  and  _478
REMARK  191  A    between atoms: _484  and  _485
REMARK  192  A    between atoms: _490  and  _492
REMARK  193  A    between atoms: _492  and  _493
REMARK  194  A    between atoms: _495  and  _497
REMARK  195  A    between atoms: _497  and  _498
REMARK  196  A    between atoms: _497  and  _500
REMARK  197  A    between atoms: _500  and  _501
REMARK  198  A    between atoms: _507  and  _509
REMARK  199  A    between atoms: _509  and  _510
REMARK  200  A    between atoms: _509  and  _512
REMARK  201  A    between atoms: _512  and  _513
REMARK  202  A    between atoms: _518  and  _520
REMARK  203  A    between atoms: _520  and  _521
REMARK  204  A    between atoms: _520  and  _523
REMARK  205  A    between atoms: _523  and  _524
REMARK  206  A    between atoms: _524  and  _525
REMARK  207  A    between atoms: _525  and  _526
REMARK  208  A    between atoms: _526  and  ZN_772
REMARK  209  A    between atoms: _528  and  _530
REMARK  210  A    between atoms: _530  and  _531
REMARK  211  A    between atoms: _534  and  _536
REMARK  212  A    between atoms: _536  and  _537
REMARK  213  A    between atoms: _539  and  _541
REMARK  214  A    between atoms: _541  and  _542
REMARK  215  A    between atoms: _541  and  _544
REMARK  216  A    between atoms: _544  and  _545
REMARK  217  A    between atoms: _548  and  _550
REMARK  218  A    between atoms: _550  and  _551
REMARK  219  A    between atoms: _554  and  _556
REMARK  220  A    between atoms: _556  and  _557
REMARK  221  A    between atoms: _556  and  _559
REMARK  222  A    between atoms: _559  and  _560
REMARK  223  A    between atoms: _563  and  _565
REMARK  224  A    between atoms: _565  and  _566
REMARK  225  A    between atoms: _565  and  _568
REMARK  226  A    between atoms: _568  and  _569
REMARK  227  A    between atoms: _569  and  _570
REMARK  228  A    between atoms: _570  and  _571
REMARK  229  A    between atoms: _571  and  _572
REMARK  230  A    between atoms: _576  and  _578
REMARK  231  A    between atoms: _578  and  _579
REMARK  232  A    between atoms: _578  and  _581
REMARK  233  A    between atoms: _581  and  _582
REMARK  234  A    between atoms: _588  and  _590
REMARK  235  A    between atoms: _590  and  _591
REMARK  236  A    between atoms: _590  and  _593
REMARK  237  A    between atoms: _593  and  _594
REMARK  238  A    between atoms: _600  and  _602
REMARK  239  A    between atoms: _602  and  _603
REMARK  240  A    between atoms: _602  and  _605
REMARK  241  A    between atoms: _605  and  _606
REMARK  242  A    between atoms: _608  and  _610
REMARK  243  A    between atoms: _610  and  _611
REMARK  244  A    between atoms: _610  and  _613
REMARK  245  A    between atoms: _616  and  _618
REMARK  246  A    between atoms: _618  and  _619
REMARK  247  A    between atoms: _618  and  _621
REMARK  248  A    between atoms: _621  and  _622
REMARK  249  A    between atoms: _622  and  _623
REMARK  250  A    between atoms: _623  and  _624
REMARK  251  A    between atoms: _624  and  _625
REMARK  252  A    between atoms: _629  and  _631
REMARK  253  A    between atoms: _631  and  _632
REMARK  254  A    between atoms: _631  and  _634
REMARK  255  A    between atoms: _634  and  _635
REMARK  256  A    between atoms: _641  and  _643
REMARK  257  A    between atoms: _643  and  _644
REMARK  258  A    between atoms: _643  and  _646
REMARK  259  A    between atoms: _646  and  _647
REMARK  260  A    between atoms: _652  and  _654
REMARK  261  A    between atoms: _654  and  _655
REMARK  262  A    between atoms: _654  and  _657
REMARK  263  A    between atoms: _657  and  _658
REMARK  264  A    between atoms: _660  and  _662
REMARK  265  A    between atoms: _662  and  _663
REMARK  266  A    between atoms: _662  and  _665
REMARK  267  A    between atoms: _665  and  _666
REMARK  268  A    between atoms: _668  and  _670
REMARK  269  A    between atoms: _670  and  _671
REMARK  270  A    between atoms: _670  and  _673
REMARK  271  A    between atoms: _677  and  _678
REMARK  272  A    between atoms: _683  and  _685
REMARK  273  A    between atoms: _685  and  _686
REMARK  274  A    between atoms: _685  and  _688
REMARK  275  A    between atoms: _688  and  _689
REMARK  276  A    between atoms: _694  and  _695
REMARK  277  A    between atoms: _697  and  _699
REMARK  278  A    between atoms: _699  and  _700
REMARK  279  A    between atoms: _699  and  _702
REMARK  280  A    between atoms: _702  and  _703
REMARK  281  A    between atoms: _703  and  _704
REMARK  282  A    between atoms: _704  and  _705
REMARK  283  A    between atoms: _714  and  _716
REMARK  284  A    between atoms: _716  and  _717
REMARK  285  A    between atoms: _716  and  _719
REMARK  286  A    between atoms: _719  and  _720
REMARK  287  A    between atoms: _725  and  _726
REMARK  288  A    between atoms: _728  and  _730
REMARK  289  A    between atoms: _730  and  _731
REMARK  290  A    between atoms: _730  and  _733
REMARK  291  A    between atoms: _733  and  _734
REMARK  292  A    between atoms: _740  and  _742
REMARK  293  A    between atoms: _742  and  _743
REMARK  294  A    between atoms: _742  and  _745
REMARK  295  A    between atoms: _745  and  _746
REMARK  296  A    between atoms: _748  and  _750
REMARK  297  A    between atoms: _750  and  _751
REMARK  298  A    between atoms: _750  and  _753
REMARK  299  A    between atoms: _753  and  _754
REMARK  300  A    between atoms: _760  and  _762
REMARK  301  A    between atoms: _762  and  _763
REMARK  302  A    between atoms: _762  and  _765
REMARK  303  A    between atoms: _765  and  _766
REMARK  304  A    between atoms: _766  and  _767
REMARK                            x       y       z     vdW  Elec       q    Type
REMARK                         _______ _______ _______ _____ _____    ______ ____
ROOT
ATOM      1  O   HOH     1      19.465 -13.658 -34.313  0.00  0.00    +0.000 OA
ENDROOT
TORSDOF 0
REMARK  Name = ../refined-set-2016/2xy9/2xy9_pocket.pdb
REMARK  304 active torsions:
REMARK  status: ('A' for Active; 'I' for Inactive)
REMARK    1  A    between atoms: _1  and  _3
REMARK    2  A    between atoms: _3  and  _4
REMARK    3  A    between atoms: _3  and  _6
REMARK    4  A    between atoms: _6  and  _7
REMARK    5  A    between atoms: _12  and  _14
REMARK    6  A    between atoms: _14  and  _15
REMARK    7  A    between atoms: _14  and  _17
REMARK    8  A    between atoms: _17  and  _18
REMARK    9  A    between atoms: _23  and  _25
REMARK   10  A    between atoms: _25  and  _26
REMARK   11  A    between atoms: _25  and  _28
REMARK   12  A    between atoms: _28  and  _29
REMARK   13  A    between atoms: _29  and  _30
REMARK   14  A    between atoms: _33  and  _35
REMARK   15  A    between atoms: _35  and  _36
REMARK   16  A    between atoms: _35  and  _38
REMARK   17  A    between atoms: _38  and  _39
REMARK   18  A    between atoms: _44  and  _45
REMARK   19  A    between atoms: _47  and  _49
REMARK   20  A    between atoms: _49  and  _50
REMARK   21  A    between atoms: _49  and  _52
REMARK   22  A    between atoms: _52  and  _53
REMARK   23  A    between atoms: _56  and  _58
REMARK   24  A    between atoms: _58  and  _59
REMARK   25  A    between atoms: _61  and  _63
REMARK   26  A    between atoms: _63  and  _64
REMARK   27  A    between atoms: _63  and  _66
REMARK   28  A    between atoms: _66  and  _67
REMARK   29  A    between atoms: _72  and  _74
REMARK   30  A    between atoms: _74  and  _75
REMARK   31  A    between atoms: _74  and  _77
REMARK   32  A    between atoms: _77  and  _78
REMARK   33  A    between atoms: _88  and  _90
REMARK   34  A    between atoms: _90  and  _91
REMARK   35  A    between atoms: _90  and  _93
REMARK   36  A    between atoms: _93  and  _94
REMARK   37  A    between atoms: _94  and  _95
REMARK   38  A    between atoms: _100  and  _102
REMARK   39  A    between atoms: _102  and  _103
REMARK   40  A    between atoms: _102  and  _105
REMARK   41  A    between atoms: _105  and  _106
REMARK   42  A    between atoms: _109  and  _111
REMARK   43  A    between atoms: _111  and  _112
REMARK   44  A    between atoms: _111  and  _114
REMARK   45  A    between atoms: _114  and  _115
REMARK   46  A    between atoms: _125  and  _127
REMARK   47  A    between atoms: _127  and  _128
REMARK   48  A    between atoms: _127  and  _130
REMARK   49  A    between atoms: _130  and  _131
REMARK   50  A    between atoms: _133  and  _135
REMARK   51  A    between atoms: _135  and  _136
REMARK   52  A    between atoms: _135  and  _138
REMARK   53  A    between atoms: _138  and  _139
REMARK   54  A    between atoms: _144  and  _146
REMARK   55  A    between atoms: _146  and  _147
REMARK   56  A    between atoms: _146  and  _149
REMARK   57  A    between atoms: _152  and  _154
REMARK   58  A    between atoms: _154  and  _155
REMARK   59  A    between atoms: _154  and  _157
REMARK   60  A    between atoms: _159  and  _161
REMARK   61  A    between atoms: _161  and  _162
REMARK   62  A    between atoms: _161  and  _164
REMARK   63  A    between atoms: _164  and  _165
REMARK   64  A    between atoms: _170  and  _172
REMARK   65  A    between atoms: _172  and  _173
REMARK   66  A    between atoms: _176  and  _178
REMARK   67  A    between atoms: _178  and  _179
REMARK   68  A    between atoms: _178  and  _181
REMARK   69  A    between atoms: _181  and  _182
REMARK   70  A    between atoms: _184  and  _186
REMARK   71  A    between atoms: _186  and  _187
REMARK   72  A    between atoms: _190  and  _192
REMARK   73  A    between atoms: _192  and  _193
REMARK   74  A    between atoms: _192  and  _195
REMARK   75  A    between atoms: _195  and  _196
REMARK   76  A    between atoms: _206  and  _208
REMARK   77  A    between atoms: _208  and  _209
REMARK   78  A    between atoms: _208  and  _211
REMARK   79  A    between atoms: _211  and  _212
REMARK   80  A    between atoms: _215  and  _217
REMARK   81  A    between atoms: _217  and  _218
REMARK   82  A    between atoms: _217  and  _220
REMARK   83  A    between atoms: _220  and  _221
REMARK   84  A    between atoms: _226  and  _227
REMARK   85  A    between atoms: _229  and  _231
REMARK   86  A    between atoms: _231  and  _232
REMARK   87  A    between atoms: _231  and  _234
REMARK   88  A    between atoms: _234  and  _235
REMARK   89  A    between atoms: _235  and  _236
REMARK   90  A    between atoms: _236  and  _237
REMARK   91  A    between atoms: _246  and  _248
REMARK   92  A    between atoms: _248  and  _249
REMARK   93  A    between atoms: _248  and  _251
REMARK   94  A    between atoms: _251  and  _252
REMARK   95  A    between atoms: _255  and  _257
REMARK   96  A    between atoms: _257  and  _258
REMARK   97  A    between atoms: _257  and  _260
REMARK   98  A    between atoms: _260  and  _261
REMARK   99  A    between atoms: _261  and  _262
REMARK  100  A    between atoms: _262  and  _263
REMARK  101  A    between atoms: _263  and  _264
REMARK  102  A    between atoms: _268  and  _270
REMARK  103  A    between atoms: _270  and  _271
REMARK  104  A    between atoms: _270  and  _273
REMARK  105  A    between atoms: _273  and  _274
REMARK  106  A    between atoms: _274  and  _275
REMARK  107  A    between atoms: _280  and  _282
REMARK  108  A    between atoms: _282  and  _283
REMARK  109  A    between atoms: _282  and  _285
REMARK  110  A    between atoms: _285  and  _286
REMARK  111  A    between atoms: _289  and  _291
REMARK  112  A    between atoms: _291  and  _292
REMARK  113  A    between atoms: _291  and  _294
REMARK  114  A    between atoms: _294  and  _295
REMARK  115  A    between atoms: _295  and  _296
REMARK  116  A    between atoms: _299  and  _301
REMARK  117  A    between atoms: _301  and  _302
REMARK  118  A    between atoms: _301  and  _304
REMARK  119  A    between atoms: _304  and  _305
REMARK  120  A    between atoms: _308  and  _310
REMARK  121  A    between atoms: _310  and  _311
REMARK  122  A    between atoms: _310  and  _313
REMARK  123  A    between atoms: _313  and  _314
REMARK  124  A    between atoms: _317  and  _319
REMARK  125  A    between atoms: _319  and  _320
REMARK  126  A    between atoms: _319  and  _322
REMARK  127  A    between atoms: _325  and  _327
REMARK  128  A    between atoms: _327  and  _328
REMARK  129  A    between atoms: _327  and  _330
REMARK  130  A    between atoms: _333  and  _335
REMARK  131  A    between atoms: _335  and  _336
REMARK  132  A    between atoms: _339  and  _341
REMARK  133  A    between atoms: _341  and  _342
REMARK  134  A    between atoms: _341  and  _344
REMARK  135  A    between atoms: _344  and  _345
REMARK  136  A    between atoms: _350  and  _352
REMARK  137  A    between atoms: _352  and  _353
REMARK  138  A    between atoms: _352  and  _355
REMARK  139  A    between atoms: _355  and  _356
REMARK  140  A    between atoms: _360  and  ZN_772
REMARK  141  A    between atoms: _361  and  _363
REMARK  142  A    between atoms: _363  and  _364
REMARK  143  A    between atoms: _363  and  _366
REMARK  144  A    between atoms: _366  and  _367
REMARK  145  A    between atoms: _367  and  _368
REMARK  146  A    between atoms: _371  and  _373
REMARK  147  A    between atoms: _373  and  _374
REMARK  148  A    between atoms: _373  and  _376
REMARK  149  A    between atoms: _376  and  _377
REMARK  150  A    between atoms: _377  and  _378
REMARK  151  A    between atoms: _380  and  _382
REMARK  152  A    between atoms: _382  and  _383
REMARK  153  A    between atoms: _382  and  _385
REMARK  154  A    between atoms: _385  and  _386
REMARK  155  A    between atoms: _390  and  ZN_772
REMARK  156  A    between atoms: _391  and  _393
REMARK  157  A    between atoms: _393  and  _394
REMARK  158  A    between atoms: _393  and  _396
REMARK  159  A    between atoms: _396  and  _397
REMARK  160  A    between atoms: _400  and  _402
REMARK  161  A    between atoms: _402  and  _403
REMARK  162  A    between atoms: _402  and  _405
REMARK  163  A    between atoms: _405  and  _406
REMARK  164  A    between atoms: _411  and  _412
REMARK  165  A    between atoms: _414  and  _416
REMARK  166  A    between atoms: _416  and  _417
REMARK  167  A    between atoms: _416  and  _419
REMARK  168  A    between atoms: _419  and  _420
REMARK  169  A    between atoms: _426  and  _428
REMARK  170  A    between atoms: _428  and  _429
REMARK  171  A    between atoms: _428  and  _431
REMARK  172  A    between atoms: _431  and  _432
REMARK  173  A    between atoms: _437  and  _438
REMARK  174  A    between atoms: _440  and  _442
REMARK  175  A    between atoms: _442  and  _443
REMARK  176  A    between atoms: _442  and  _445
REMARK  177  A    between atoms: _445  and  _446
REMARK  178  A    between atoms: _446  and  _447
REMARK  179  A    between atoms: _447  and  _448
REMARK  180  A    between atoms: _457  and  _459
REMARK  181  A    between atoms: _459  and  _460
REMARK  182  A    between atoms: _459  and  _462
REMARK  183  A    between atoms: _462  and  _463
REMARK  184  A    between atoms: _463  and  _464
REMARK  185  A    between atoms: _467  and  _469
REMARK  186  A    between atoms: _469  and  _470
REMARK  187  A    between atoms: _472  and  _474
REMARK  188  A    between atoms: _474  and  _475
REMARK  189  A    between atoms: _474  and  _477
REMARK  190  A    between atoms: _477  and  _478
REMARK  191  A    between atoms: _484  and  _485
REMARK  192  A    between atoms: _490  and  _492
REMARK  193  A    between atoms: _492  and  _493
REMARK  194  A    between atoms: _495  and  _497
REMARK  195  A    between atoms: _497  and  _498
REMARK  196  A    between atoms: _497  and  _500
REMARK  197  A    between atoms: _500  and  _501
REMARK  198  A    between atoms: _507  and  _509
REMARK  199  A    between atoms: _509  and  _510
REMARK  200  A    between atoms: _509  and  _512
REMARK  201  A    between atoms: _512  and  _513
REMARK  202  A    between atoms: _518  and  _520
REMARK  203  A    between atoms: _520  and  _521
REMARK  204  A    between atoms: _520  and  _523
REMARK  205  A    between atoms: _523  and  _524
REMARK  206  A    between atoms: _524  and  _525
REMARK  207  A    between atoms: _525  and  _526
REMARK  208  A    between atoms: _526  and  ZN_772
REMARK  209  A    between atoms: _528  and  _530
REMARK  210  A    between atoms: _530  and  _531
REMARK  211  A    between atoms: _534  and  _536
REMARK  212  A    between atoms: _536  and  _537
REMARK  213  A    between atoms: _539  and  _541
REMARK  214  A    between atoms: _541  and  _542
REMARK  215  A    between atoms: _541  and  _544
REMARK  216  A    between atoms: _544  and  _545
REMARK  217  A    between atoms: _548  and  _550
REMARK  218  A    between atoms: _550  and  _551
REMARK  219  A    between atoms: _554  and  _556
REMARK  220  A    between atoms: _556  and  _557
REMARK  221  A    between atoms: _556  and  _559
REMARK  222  A    between atoms: _559  and  _560
REMARK  223  A    between atoms: _563  and  _565
REMARK  224  A    between atoms: _565  and  _566
REMARK  225  A    between atoms: _565  and  _568
REMARK  226  A    between atoms: _568  and  _569
REMARK  227  A    between atoms: _569  and  _570
REMARK  228  A    between atoms: _570  and  _571
REMARK  229  A    between atoms: _571  and  _572
REMARK  230  A    between atoms: _576  and  _578
REMARK  231  A    between atoms: _578  and  _579
REMARK  232  A    between atoms: _578  and  _581
REMARK  233  A    between atoms: _581  and  _582
REMARK  234  A    between atoms: _588  and  _590
REMARK  235  A    between atoms: _590  and  _591
REMARK  236  A    between atoms: _590  and  _593
REMARK  237  A    between atoms: _593  and  _594
REMARK  238  A    between atoms: _600  and  _602
REMARK  239  A    between atoms: _602  and  _603
REMARK  240  A    between atoms: _602  and  _605
REMARK  241  A    between atoms: _605  and  _606
REMARK  242  A    between atoms: _608  and  _610
REMARK  243  A    between atoms: _610  and  _611
REMARK  244  A    between atoms: _610  and  _613
REMARK  245  A    between atoms: _616  and  _618
REMARK  246  A    between atoms: _618  and  _619
REMARK  247  A    between atoms: _618  and  _621
REMARK  248  A    between atoms: _621  and  _622
REMARK  249  A    between atoms: _622  and  _623
REMARK  250  A    between atoms: _623  and  _624
REMARK  251  A    between atoms: _624  and  _625
REMARK  252  A    between atoms: _629  and  _631
REMARK  253  A    between atoms: _631  and  _632
REMARK  254  A    between atoms: _631  and  _634
REMARK  255  A    between atoms: _634  and  _635
REMARK  256  A    between atoms: _641  and  _643
REMARK  257  A    between atoms: _643  and  _644
REMARK  258  A    between atoms: _643  and  _646
REMARK  259  A    between atoms: _646  and  _647
REMARK  260  A    between atoms: _652  and  _654
REMARK  261  A    between atoms: _654  and  _655
REMARK  262  A    between atoms: _654  and  _657
REMARK  263  A    between atoms: _657  and  _658
REMARK  264  A    between atoms: _660  and  _662
REMARK  265  A    between atoms: _662  and  _663
REMARK  266  A    between atoms: _662  and  _665
REMARK  267  A    between atoms: _665  and  _666
REMARK  268  A    between atoms: _668  and  _670
REMARK  269  A    between atoms: _670  and  _671
REMARK  270  A    between atoms: _670  and  _673
REMARK  271  A    between atoms: _677  and  _678
REMARK  272  A    between atoms: _683  and  _685
REMARK  273  A    between atoms: _685  and  _686
REMARK  274  A    between atoms: _685  and  _688
REMARK  275  A    between atoms: _688  and  _689
REMARK  276  A    between atoms: _694  and  _695
REMARK  277  A    between atoms: _697  and  _699
REMARK  278  A    between atoms: _699  and  _700
REMARK  279  A    between atoms: _699  and  _702
REMARK  280  A    between atoms: _702  and  _703
REMARK  281  A    between atoms: _703  and  _704
REMARK  282  A    between atoms: _704  and  _705
REMARK  283  A    between atoms: _714  and  _716
REMARK  284  A    between atoms: _716  and  _717
REMARK  285  A    between atoms: _716  and  _719
REMARK  286  A    between atoms: _719  and  _720
REMARK  287  A    between atoms: _725  and  _726
REMARK  288  A    between atoms: _728  and  _730
REMARK  289  A    between atoms: _730  and  _731
REMARK  290  A    between atoms: _730  and  _733
REMARK  291  A    between atoms: _733  and  _734
REMARK  292  A    between atoms: _740  and  _742
REMARK  293  A    between atoms: _742  and  _743
REMARK  294  A    between atoms: _742  and  _745
REMARK  295  A    between atoms: _745  and  _746
REMARK  296  A    between atoms: _748  and  _750
REMARK  297  A    between atoms: _750  and  _751
REMARK  298  A    between atoms: _750  and  _753
REMARK  299  A    between atoms: _753  and  _754
REMARK  300  A    between atoms: _760  and  _762
REMARK  301  A    between atoms: _762  and  _763
REMARK  302  A    between atoms: _762  and  _765
REMARK  303  A    between atoms: _765  and  _766
REMARK  304  A    between atoms: _766  and  _767
REMARK                            x       y       z     vdW  Elec       q    Type
REMARK                         _______ _______ _______ _____ _____    ______ ____
ROOT
ATOM      1  O   HOH     1      16.406 -12.514 -19.677  0.00  0.00    +0.000 OA
ENDROOT
TORSDOF 0
REMARK  Name = ../refined-set-2016/2xy9/2xy9_pocket.pdb
REMARK  304 active torsions:
REMARK  status: ('A' for Active; 'I' for Inactive)
REMARK    1  A    between atoms: _1  and  _3
REMARK    2  A    between atoms: _3  and  _4
REMARK    3  A    between atoms: _3  and  _6
REMARK    4  A    between atoms: _6  and  _7
REMARK    5  A    between atoms: _12  and  _14
REMARK    6  A    between atoms: _14  and  _15
REMARK    7  A    between atoms: _14  and  _17
REMARK    8  A    between atoms: _17  and  _18
REMARK    9  A    between atoms: _23  and  _25
REMARK   10  A    between atoms: _25  and  _26
REMARK   11  A    between atoms: _25  and  _28
REMARK   12  A    between atoms: _28  and  _29
REMARK   13  A    between atoms: _29  and  _30
REMARK   14  A    between atoms: _33  and  _35
REMARK   15  A    between atoms: _35  and  _36
REMARK   16  A    between atoms: _35  and  _38
REMARK   17  A    between atoms: _38  and  _39
REMARK   18  A    between atoms: _44  and  _45
REMARK   19  A    between atoms: _47  and  _49
REMARK   20  A    between atoms: _49  and  _50
REMARK   21  A    between atoms: _49  and  _52
REMARK   22  A    between atoms: _52  and  _53
REMARK   23  A    between atoms: _56  and  _58
REMARK   24  A    between atoms: _58  and  _59
REMARK   25  A    between atoms: _61  and  _63
REMARK   26  A    between atoms: _63  and  _64
REMARK   27  A    between atoms: _63  and  _66
REMARK   28  A    between atoms: _66  and  _67
REMARK   29  A    between atoms: _72  and  _74
REMARK   30  A    between atoms: _74  and  _75
REMARK   31  A    between atoms: _74  and  _77
REMARK   32  A    between atoms: _77  and  _78
REMARK   33  A    between atoms: _88  and  _90
REMARK   34  A    between atoms: _90  and  _91
REMARK   35  A    between atoms: _90  and  _93
REMARK   36  A    between atoms: _93  and  _94
REMARK   37  A    between atoms: _94  and  _95
REMARK   38  A    between atoms: _100  and  _102
REMARK   39  A    between atoms: _102  and  _103
REMARK   40  A    between atoms: _102  and  _105
REMARK   41  A    between atoms: _105  and  _106
REMARK   42  A    between atoms: _109  and  _111
REMARK   43  A    between atoms: _111  and  _112
REMARK   44  A    between atoms: _111  and  _114
REMARK   45  A    between atoms: _114  and  _115
REMARK   46  A    between atoms: _125  and  _127
REMARK   47  A    between atoms: _127  and  _128
REMARK   48  A    between atoms: _127  and  _130
REMARK   49  A    between atoms: _130  and  _131
REMARK   50  A    between atoms: _133  and  _135
REMARK   51  A    between atoms: _135  and  _136
REMARK   52  A    between atoms: _135  and  _138
REMARK   53  A    between atoms: _138  and  _139
REMARK   54  A    between atoms: _144  and  _146
REMARK   55  A    between atoms: _146  and  _147
REMARK   56  A    between atoms: _146  and  _149
REMARK   57  A    between atoms: _152  and  _154
REMARK   58  A    between atoms: _154  and  _155
REMARK   59  A    between atoms: _154  and  _157
REMARK   60  A    between atoms: _159  and  _161
REMARK   61  A    between atoms: _161  and  _162
REMARK   62  A    between atoms: _161  and  _164
REMARK   63  A    between atoms: _164  and  _165
REMARK   64  A    between atoms: _170  and  _172
REMARK   65  A    between atoms: _172  and  _173
REMARK   66  A    between atoms: _176  and  _178
REMARK   67  A    between atoms: _178  and  _179
REMARK   68  A    between atoms: _178  and  _181
REMARK   69  A    between atoms: _181  and  _182
REMARK   70  A    between atoms: _184  and  _186
REMARK   71  A    between atoms: _186  and  _187
REMARK   72  A    between atoms: _190  and  _192
REMARK   73  A    between atoms: _192  and  _193
REMARK   74  A    between atoms: _192  and  _195
REMARK   75  A    between atoms: _195  and  _196
REMARK   76  A    between atoms: _206  and  _208
REMARK   77  A    between atoms: _208  and  _209
REMARK   78  A    between atoms: _208  and  _211
REMARK   79  A    between atoms: _211  and  _212
REMARK   80  A    between atoms: _215  and  _217
REMARK   81  A    between atoms: _217  and  _218
REMARK   82  A    between atoms: _217  and  _220
REMARK   83  A    between atoms: _220  and  _221
REMARK   84  A    between atoms: _226  and  _227
REMARK   85  A    between atoms: _229  and  _231
REMARK   86  A    between atoms: _231  and  _232
REMARK   87  A    between atoms: _231  and  _234
REMARK   88  A    between atoms: _234  and  _235
REMARK   89  A    between atoms: _235  and  _236
REMARK   90  A    between atoms: _236  and  _237
REMARK   91  A    between atoms: _246  and  _248
REMARK   92  A    between atoms: _248  and  _249
REMARK   93  A    between atoms: _248  and  _251
REMARK   94  A    between atoms: _251  and  _252
REMARK   95  A    between atoms: _255  and  _257
REMARK   96  A    between atoms: _257  and  _258
REMARK   97  A    between atoms: _257  and  _260
REMARK   98  A    between atoms: _260  and  _261
REMARK   99  A    between atoms: _261  and  _262
REMARK  100  A    between atoms: _262  and  _263
REMARK  101  A    between atoms: _263  and  _264
REMARK  102  A    between atoms: _268  and  _270
REMARK  103  A    between atoms: _270  and  _271
REMARK  104  A    between atoms: _270  and  _273
REMARK  105  A    between atoms: _273  and  _274
REMARK  106  A    between atoms: _274  and  _275
REMARK  107  A    between atoms: _280  and  _282
REMARK  108  A    between atoms: _282  and  _283
REMARK  109  A    between atoms: _282  and  _285
REMARK  110  A    between atoms: _285  and  _286
REMARK  111  A    between atoms: _289  and  _291
REMARK  112  A    between atoms: _291  and  _292
REMARK  113  A    between atoms: _291  and  _294
REMARK  114  A    between atoms: _294  and  _295
REMARK  115  A    between atoms: _295  and  _296
REMARK  116  A    between atoms: _299  and  _301
REMARK  117  A    between atoms: _301  and  _302
REMARK  118  A    between atoms: _301  and  _304
REMARK  119  A    between atoms: _304  and  _305
REMARK  120  A    between atoms: _308  and  _310
REMARK  121  A    between atoms: _310  and  _311
REMARK  122  A    between atoms: _310  and  _313
REMARK  123  A    between atoms: _313  and  _314
REMARK  124  A    between atoms: _317  and  _319
REMARK  125  A    between atoms: _319  and  _320
REMARK  126  A    between atoms: _319  and  _322
REMARK  127  A    between atoms: _325  and  _327
REMARK  128  A    between atoms: _327  and  _328
REMARK  129  A    between atoms: _327  and  _330
REMARK  130  A    between atoms: _333  and  _335
REMARK  131  A    between atoms: _335  and  _336
REMARK  132  A    between atoms: _339  and  _341
REMARK  133  A    between atoms: _341  and  _342
REMARK  134  A    between atoms: _341  and  _344
REMARK  135  A    between atoms: _344  and  _345
REMARK  136  A    between atoms: _350  and  _352
REMARK  137  A    between atoms: _352  and  _353
REMARK  138  A    between atoms: _352  and  _355
REMARK  139  A    between atoms: _355  and  _356
REMARK  140  A    between atoms: _360  and  ZN_772
REMARK  141  A    between atoms: _361  and  _363
REMARK  142  A    between atoms: _363  and  _364
REMARK  143  A    between atoms: _363  and  _366
REMARK  144  A    between atoms: _366  and  _367
REMARK  145  A    between atoms: _367  and  _368
REMARK  146  A    between atoms: _371  and  _373
REMARK  147  A    between atoms: _373  and  _374
REMARK  148  A    between atoms: _373  and  _376
REMARK  149  A    between atoms: _376  and  _377
REMARK  150  A    between atoms: _377  and  _378
REMARK  151  A    between atoms: _380  and  _382
REMARK  152  A    between atoms: _382  and  _383
REMARK  153  A    between atoms: _382  and  _385
REMARK  154  A    between atoms: _385  and  _386
REMARK  155  A    between atoms: _390  and  ZN_772
REMARK  156  A    between atoms: _391  and  _393
REMARK  157  A    between atoms: _393  and  _394
REMARK  158  A    between atoms: _393  and  _396
REMARK  159  A    between atoms: _396  and  _397
REMARK  160  A    between atoms: _400  and  _402
REMARK  161  A    between atoms: _402  and  _403
REMARK  162  A    between atoms: _402  and  _405
REMARK  163  A    between atoms: _405  and  _406
REMARK  164  A    between atoms: _411  and  _412
REMARK  165  A    between atoms: _414  and  _416
REMARK  166  A    between atoms: _416  and  _417
REMARK  167  A    between atoms: _416  and  _419
REMARK  168  A    between atoms: _419  and  _420
REMARK  169  A    between atoms: _426  and  _428
REMARK  170  A    between atoms: _428  and  _429
REMARK  171  A    between atoms: _428  and  _431
REMARK  172  A    between atoms: _431  and  _432
REMARK  173  A    between atoms: _437  and  _438
REMARK  174  A    between atoms: _440  and  _442
REMARK  175  A    between atoms: _442  and  _443
REMARK  176  A    between atoms: _442  and  _445
REMARK  177  A    between atoms: _445  and  _446
REMARK  178  A    between atoms: _446  and  _447
REMARK  179  A    between atoms: _447  and  _448
REMARK  180  A    between atoms: _457  and  _459
REMARK  181  A    between atoms: _459  and  _460
REMARK  182  A    between atoms: _459  and  _462
REMARK  183  A    between atoms: _462  and  _463
REMARK  184  A    between atoms: _463  and  _464
REMARK  185  A    between atoms: _467  and  _469
REMARK  186  A    between atoms: _469  and  _470
REMARK  187  A    between atoms: _472  and  _474
REMARK  188  A    between atoms: _474  and  _475
REMARK  189  A    between atoms: _474  and  _477
REMARK  190  A    between atoms: _477  and  _478
REMARK  191  A    between atoms: _484  and  _485
REMARK  192  A    between atoms: _490  and  _492
REMARK  193  A    between atoms: _492  and  _493
REMARK  194  A    between atoms: _495  and  _497
REMARK  195  A    between atoms: _497  and  _498
REMARK  196  A    between atoms: _497  and  _500
REMARK  197  A    between atoms: _500  and  _501
REMARK  198  A    between atoms: _507  and  _509
REMARK  199  A    between atoms: _509  and  _510
REMARK  200  A    between atoms: _509  and  _512
REMARK  201  A    between atoms: _512  and  _513
REMARK  202  A    between atoms: _518  and  _520
REMARK  203  A    between atoms: _520  and  _521
REMARK  204  A    between atoms: _520  and  _523
REMARK  205  A    between atoms: _523  and  _524
REMARK  206  A    between atoms: _524  and  _525
REMARK  207  A    between atoms: _525  and  _526
REMARK  208  A    between atoms: _526  and  ZN_772
REMARK  209  A    between atoms: _528  and  _530
REMARK  210  A    between atoms: _530  and  _531
REMARK  211  A    between atoms: _534  and  _536
REMARK  212  A    between atoms: _536  and  _537
REMARK  213  A    between atoms: _539  and  _541
REMARK  214  A    between atoms: _541  and  _542
REMARK  215  A    between atoms: _541  and  _544
REMARK  216  A    between atoms: _544  and  _545
REMARK  217  A    between atoms: _548  and  _550
REMARK  218  A    between atoms: _550  and  _551
REMARK  219  A    between atoms: _554  and  _556
REMARK  220  A    between atoms: _556  and  _557
REMARK  221  A    between atoms: _556  and  _559
REMARK  222  A    between atoms: _559  and  _560
REMARK  223  A    between atoms: _563  and  _565
REMARK  224  A    between atoms: _565  and  _566
REMARK  225  A    between atoms: _565  and  _568
REMARK  226  A    between atoms: _568  and  _569
REMARK  227  A    between atoms: _569  and  _570
REMARK  228  A    between atoms: _570  and  _571
REMARK  229  A    between atoms: _571  and  _572
REMARK  230  A    between atoms: _576  and  _578
REMARK  231  A    between atoms: _578  and  _579
REMARK  232  A    between atoms: _578  and  _581
REMARK  233  A    between atoms: _581  and  _582
REMARK  234  A    between atoms: _588  and  _590
REMARK  235  A    between atoms: _590  and  _591
REMARK  236  A    between atoms: _590  and  _593
REMARK  237  A    between atoms: _593  and  _594
REMARK  238  A    between atoms: _600  and  _602
REMARK  239  A    between atoms: _602  and  _603
REMARK  240  A    between atoms: _602  and  _605
REMARK  241  A    between atoms: _605  and  _606
REMARK  242  A    between atoms: _608  and  _610
REMARK  243  A    between atoms: _610  and  _611
REMARK  244  A    between atoms: _610  and  _613
REMARK  245  A    between atoms: _616  and  _618
REMARK  246  A    between atoms: _618  and  _619
REMARK  247  A    between atoms: _618  and  _621
REMARK  248  A    between atoms: _621  and  _622
REMARK  249  A    between atoms: _622  and  _623
REMARK  250  A    between atoms: _623  and  _624
REMARK  251  A    between atoms: _624  and  _625
REMARK  252  A    between atoms: _629  and  _631
REMARK  253  A    between atoms: _631  and  _632
REMARK  254  A    between atoms: _631  and  _634
REMARK  255  A    between atoms: _634  and  _635
REMARK  256  A    between atoms: _641  and  _643
REMARK  257  A    between atoms: _643  and  _644
REMARK  258  A    between atoms: _643  and  _646
REMARK  259  A    between atoms: _646  and  _647
REMARK  260  A    between atoms: _652  and  _654
REMARK  261  A    between atoms: _654  and  _655
REMARK  262  A    between atoms: _654  and  _657
REMARK  263  A    between atoms: _657  and  _658
REMARK  264  A    between atoms: _660  and  _662
REMARK  265  A    between atoms: _662  and  _663
REMARK  266  A    between atoms: _662  and  _665
REMARK  267  A    between atoms: _665  and  _666
REMARK  268  A    between atoms: _668  and  _670
REMARK  269  A    between atoms: _670  and  _671
REMARK  270  A    between atoms: _670  and  _673
REMARK  271  A    between atoms: _677  and  _678
REMARK  272  A    between atoms: _683  and  _685
REMARK  273  A    between atoms: _685  and  _686
REMARK  274  A    between atoms: _685  and  _688
REMARK  275  A    between atoms: _688  and  _689
REMARK  276  A    between atoms: _694  and  _695
REMARK  277  A    between atoms: _697  and  _699
REMARK  278  A    between atoms: _699  and  _700
REMARK  279  A    between atoms: _699  and  _702
REMARK  280  A    between atoms: _702  and  _703
REMARK  281  A    between atoms: _703  and  _704
REMARK  282  A    between atoms: _704  and  _705
REMARK  283  A    between atoms: _714  and  _716
REMARK  284  A    between atoms: _716  and  _717
REMARK  285  A    between atoms: _716  and  _719
REMARK  286  A    between atoms: _719  and  _720
REMARK  287  A    between atoms: _725  and  _726
REMARK  288  A    between atoms: _728  and  _730
REMARK  289  A    between atoms: _730  and  _731
REMARK  290  A    between atoms: _730  and  _733
REMARK  291  A    between atoms: _733  and  _734
REMARK  292  A    between atoms: _740  and  _742
REMARK  293  A    between atoms: _742  and  _743
REMARK  294  A    between atoms: _742  and  _745
REMARK  295  A    between atoms: _745  and  _746
REMARK  296  A    between atoms: _748  and  _750
REMARK  297  A    between atoms: _750  and  _751
REMARK  298  A    between atoms: _750  and  _753
REMARK  299  A    between atoms: _753  and  _754
REMARK  300  A    between atoms: _760  and  _762
REMARK  301  A    between atoms: _762  and  _763
REMARK  302  A    between atoms: _762  and  _765
REMARK  303  A    between atoms: _765  and  _766
REMARK  304  A    between atoms: _766  and  _767
REMARK                            x       y       z     vdW  Elec       q    Type
REMARK                         _______ _______ _______ _____ _____    ______ ____
ROOT
ATOM      1  O   HOH     1      12.946  -7.232 -15.264  0.00  0.00    +0.000 OA
ENDROOT
TORSDOF 0
REMARK  Name = ../refined-set-2016/2xy9/2xy9_pocket.pdb
REMARK  304 active torsions:
REMARK  status: ('A' for Active; 'I' for Inactive)
REMARK    1  A    between atoms: _1  and  _3
REMARK    2  A    between atoms: _3  and  _4
REMARK    3  A    between atoms: _3  and  _6
REMARK    4  A    between atoms: _6  and  _7
REMARK    5  A    between atoms: _12  and  _14
REMARK    6  A    between atoms: _14  and  _15
REMARK    7  A    between atoms: _14  and  _17
REMARK    8  A    between atoms: _17  and  _18
REMARK    9  A    between atoms: _23  and  _25
REMARK   10  A    between atoms: _25  and  _26
REMARK   11  A    between atoms: _25  and  _28
REMARK   12  A    between atoms: _28  and  _29
REMARK   13  A    between atoms: _29  and  _30
REMARK   14  A    between atoms: _33  and  _35
REMARK   15  A    between atoms: _35  and  _36
REMARK   16  A    between atoms: _35  and  _38
REMARK   17  A    between atoms: _38  and  _39
REMARK   18  A    between atoms: _44  and  _45
REMARK   19  A    between atoms: _47  and  _49
REMARK   20  A    between atoms: _49  and  _50
REMARK   21  A    between atoms: _49  and  _52
REMARK   22  A    between atoms: _52  and  _53
REMARK   23  A    between atoms: _56  and  _58
REMARK   24  A    between atoms: _58  and  _59
REMARK   25  A    between atoms: _61  and  _63
REMARK   26  A    between atoms: _63  and  _64
REMARK   27  A    between atoms: _63  and  _66
REMARK   28  A    between atoms: _66  and  _67
REMARK   29  A    between atoms: _72  and  _74
REMARK   30  A    between atoms: _74  and  _75
REMARK   31  A    between atoms: _74  and  _77
REMARK   32  A    between atoms: _77  and  _78
REMARK   33  A    between atoms: _88  and  _90
REMARK   34  A    between atoms: _90  and  _91
REMARK   35  A    between atoms: _90  and  _93
REMARK   36  A    between atoms: _93  and  _94
REMARK   37  A    between atoms: _94  and  _95
REMARK   38  A    between atoms: _100  and  _102
REMARK   39  A    between atoms: _102  and  _103
REMARK   40  A    between atoms: _102  and  _105
REMARK   41  A    between atoms: _105  and  _106
REMARK   42  A    between atoms: _109  and  _111
REMARK   43  A    between atoms: _111  and  _112
REMARK   44  A    between atoms: _111  and  _114
REMARK   45  A    between atoms: _114  and  _115
REMARK   46  A    between atoms: _125  and  _127
REMARK   47  A    between atoms: _127  and  _128
REMARK   48  A    between atoms: _127  and  _130
REMARK   49  A    between atoms: _130  and  _131
REMARK   50  A    between atoms: _133  and  _135
REMARK   51  A    between atoms: _135  and  _136
REMARK   52  A    between atoms: _135  and  _138
REMARK   53  A    between atoms: _138  and  _139
REMARK   54  A    between atoms: _144  and  _146
REMARK   55  A    between atoms: _146  and  _147
REMARK   56  A    between atoms: _146  and  _149
REMARK   57  A    between atoms: _152  and  _154
REMARK   58  A    between atoms: _154  and  _155
REMARK   59  A    between atoms: _154  and  _157
REMARK   60  A    between atoms: _159  and  _161
REMARK   61  A    between atoms: _161  and  _162
REMARK   62  A    between atoms: _161  and  _164
REMARK   63  A    between atoms: _164  and  _165
REMARK   64  A    between atoms: _170  and  _172
REMARK   65  A    between atoms: _172  and  _173
REMARK   66  A    between atoms: _176  and  _178
REMARK   67  A    between atoms: _178  and  _179
REMARK   68  A    between atoms: _178  and  _181
REMARK   69  A    between atoms: _181  and  _182
REMARK   70  A    between atoms: _184  and  _186
REMARK   71  A    between atoms: _186  and  _187
REMARK   72  A    between atoms: _190  and  _192
REMARK   73  A    between atoms: _192  and  _193
REMARK   74  A    between atoms: _192  and  _195
REMARK   75  A    between atoms: _195  and  _196
REMARK   76  A    between atoms: _206  and  _208
REMARK   77  A    between atoms: _208  and  _209
REMARK   78  A    between atoms: _208  and  _211
REMARK   79  A    between atoms: _211  and  _212
REMARK   80  A    between atoms: _215  and  _217
REMARK   81  A    between atoms: _217  and  _218
REMARK   82  A    between atoms: _217  and  _220
REMARK   83  A    between atoms: _220  and  _221
REMARK   84  A    between atoms: _226  and  _227
REMARK   85  A    between atoms: _229  and  _231
REMARK   86  A    between atoms: _231  and  _232
REMARK   87  A    between atoms: _231  and  _234
REMARK   88  A    between atoms: _234  and  _235
REMARK   89  A    between atoms: _235  and  _236
REMARK   90  A    between atoms: _236  and  _237
REMARK   91  A    between atoms: _246  and  _248
REMARK   92  A    between atoms: _248  and  _249
REMARK   93  A    between atoms: _248  and  _251
REMARK   94  A    between atoms: _251  and  _252
REMARK   95  A    between atoms: _255  and  _257
REMARK   96  A    between atoms: _257  and  _258
REMARK   97  A    between atoms: _257  and  _260
REMARK   98  A    between atoms: _260  and  _261
REMARK   99  A    between atoms: _261  and  _262
REMARK  100  A    between atoms: _262  and  _263
REMARK  101  A    between atoms: _263  and  _264
REMARK  102  A    between atoms: _268  and  _270
REMARK  103  A    between atoms: _270  and  _271
REMARK  104  A    between atoms: _270  and  _273
REMARK  105  A    between atoms: _273  and  _274
REMARK  106  A    between atoms: _274  and  _275
REMARK  107  A    between atoms: _280  and  _282
REMARK  108  A    between atoms: _282  and  _283
REMARK  109  A    between atoms: _282  and  _285
REMARK  110  A    between atoms: _285  and  _286
REMARK  111  A    between atoms: _289  and  _291
REMARK  112  A    between atoms: _291  and  _292
REMARK  113  A    between atoms: _291  and  _294
REMARK  114  A    between atoms: _294  and  _295
REMARK  115  A    between atoms: _295  and  _296
REMARK  116  A    between atoms: _299  and  _301
REMARK  117  A    between atoms: _301  and  _302
REMARK  118  A    between atoms: _301  and  _304
REMARK  119  A    between atoms: _304  and  _305
REMARK  120  A    between atoms: _308  and  _310
REMARK  121  A    between atoms: _310  and  _311
REMARK  122  A    between atoms: _310  and  _313
REMARK  123  A    between atoms: _313  and  _314
REMARK  124  A    between atoms: _317  and  _319
REMARK  125  A    between atoms: _319  and  _320
REMARK  126  A    between atoms: _319  and  _322
REMARK  127  A    between atoms: _325  and  _327
REMARK  128  A    between atoms: _327  and  _328
REMARK  129  A    between atoms: _327  and  _330
REMARK  130  A    between atoms: _333  and  _335
REMARK  131  A    between atoms: _335  and  _336
REMARK  132  A    between atoms: _339  and  _341
REMARK  133  A    between atoms: _341  and  _342
REMARK  134  A    between atoms: _341  and  _344
REMARK  135  A    between atoms: _344  and  _345
REMARK  136  A    between atoms: _350  and  _352
REMARK  137  A    between atoms: _352  and  _353
REMARK  138  A    between atoms: _352  and  _355
REMARK  139  A    between atoms: _355  and  _356
REMARK  140  A    between atoms: _360  and  ZN_772
REMARK  141  A    between atoms: _361  and  _363
REMARK  142  A    between atoms: _363  and  _364
REMARK  143  A    between atoms: _363  and  _366
REMARK  144  A    between atoms: _366  and  _367
REMARK  145  A    between atoms: _367  and  _368
REMARK  146  A    between atoms: _371  and  _373
REMARK  147  A    between atoms: _373  and  _374
REMARK  148  A    between atoms: _373  and  _376
REMARK  149  A    between atoms: _376  and  _377
REMARK  150  A    between atoms: _377  and  _378
REMARK  151  A    between atoms: _380  and  _382
REMARK  152  A    between atoms: _382  and  _383
REMARK  153  A    between atoms: _382  and  _385
REMARK  154  A    between atoms: _385  and  _386
REMARK  155  A    between atoms: _390  and  ZN_772
REMARK  156  A    between atoms: _391  and  _393
REMARK  157  A    between atoms: _393  and  _394
REMARK  158  A    between atoms: _393  and  _396
REMARK  159  A    between atoms: _396  and  _397
REMARK  160  A    between atoms: _400  and  _402
REMARK  161  A    between atoms: _402  and  _403
REMARK  162  A    between atoms: _402  and  _405
REMARK  163  A    between atoms: _405  and  _406
REMARK  164  A    between atoms: _411  and  _412
REMARK  165  A    between atoms: _414  and  _416
REMARK  166  A    between atoms: _416  and  _417
REMARK  167  A    between atoms: _416  and  _419
REMARK  168  A    between atoms: _419  and  _420
REMARK  169  A    between atoms: _426  and  _428
REMARK  170  A    between atoms: _428  and  _429
REMARK  171  A    between atoms: _428  and  _431
REMARK  172  A    between atoms: _431  and  _432
REMARK  173  A    between atoms: _437  and  _438
REMARK  174  A    between atoms: _440  and  _442
REMARK  175  A    between atoms: _442  and  _443
REMARK  176  A    between atoms: _442  and  _445
REMARK  177  A    between atoms: _445  and  _446
REMARK  178  A    between atoms: _446  and  _447
REMARK  179  A    between atoms: _447  and  _448
REMARK  180  A    between atoms: _457  and  _459
REMARK  181  A    between atoms: _459  and  _460
REMARK  182  A    between atoms: _459  and  _462
REMARK  183  A    between atoms: _462  and  _463
REMARK  184  A    between atoms: _463  and  _464
REMARK  185  A    between atoms: _467  and  _469
REMARK  186  A    between atoms: _469  and  _470
REMARK  187  A    between atoms: _472  and  _474
REMARK  188  A    between atoms: _474  and  _475
REMARK  189  A    between atoms: _474  and  _477
REMARK  190  A    between atoms: _477  and  _478
REMARK  191  A    between atoms: _484  and  _485
REMARK  192  A    between atoms: _490  and  _492
REMARK  193  A    between atoms: _492  and  _493
REMARK  194  A    between atoms: _495  and  _497
REMARK  195  A    between atoms: _497  and  _498
REMARK  196  A    between atoms: _497  and  _500
REMARK  197  A    between atoms: _500  and  _501
REMARK  198  A    between atoms: _507  and  _509
REMARK  199  A    between atoms: _509  and  _510
REMARK  200  A    between atoms: _509  and  _512
REMARK  201  A    between atoms: _512  and  _513
REMARK  202  A    between atoms: _518  and  _520
REMARK  203  A    between atoms: _520  and  _521
REMARK  204  A    between atoms: _520  and  _523
REMARK  205  A    between atoms: _523  and  _524
REMARK  206  A    between atoms: _524  and  _525
REMARK  207  A    between atoms: _525  and  _526
REMARK  208  A    between atoms: _526  and  ZN_772
REMARK  209  A    between atoms: _528  and  _530
REMARK  210  A    between atoms: _530  and  _531
REMARK  211  A    between atoms: _534  and  _536
REMARK  212  A    between atoms: _536  and  _537
REMARK  213  A    between atoms: _539  and  _541
REMARK  214  A    between atoms: _541  and  _542
REMARK  215  A    between atoms: _541  and  _544
REMARK  216  A    between atoms: _544  and  _545
REMARK  217  A    between atoms: _548  and  _550
REMARK  218  A    between atoms: _550  and  _551
REMARK  219  A    between atoms: _554  and  _556
REMARK  220  A    between atoms: _556  and  _557
REMARK  221  A    between atoms: _556  and  _559
REMARK  222  A    between atoms: _559  and  _560
REMARK  223  A    between atoms: _563  and  _565
REMARK  224  A    between atoms: _565  and  _566
REMARK  225  A    between atoms: _565  and  _568
REMARK  226  A    between atoms: _568  and  _569
REMARK  227  A    between atoms: _569  and  _570
REMARK  228  A    between atoms: _570  and  _571
REMARK  229  A    between atoms: _571  and  _572
REMARK  230  A    between atoms: _576  and  _578
REMARK  231  A    between atoms: _578  and  _579
REMARK  232  A    between atoms: _578  and  _581
REMARK  233  A    between atoms: _581  and  _582
REMARK  234  A    between atoms: _588  and  _590
REMARK  235  A    between atoms: _590  and  _591
REMARK  236  A    between atoms: _590  and  _593
REMARK  237  A    between atoms: _593  and  _594
REMARK  238  A    between atoms: _600  and  _602
REMARK  239  A    between atoms: _602  and  _603
REMARK  240  A    between atoms: _602  and  _605
REMARK  241  A    between atoms: _605  and  _606
REMARK  242  A    between atoms: _608  and  _610
REMARK  243  A    between atoms: _610  and  _611
REMARK  244  A    between atoms: _610  and  _613
REMARK  245  A    between atoms: _616  and  _618
REMARK  246  A    between atoms: _618  and  _619
REMARK  247  A    between atoms: _618  and  _621
REMARK  248  A    between atoms: _621  and  _622
REMARK  249  A    between atoms: _622  and  _623
REMARK  250  A    between atoms: _623  and  _624
REMARK  251  A    between atoms: _624  and  _625
REMARK  252  A    between atoms: _629  and  _631
REMARK  253  A    between atoms: _631  and  _632
REMARK  254  A    between atoms: _631  and  _634
REMARK  255  A    between atoms: _634  and  _635
REMARK  256  A    between atoms: _641  and  _643
REMARK  257  A    between atoms: _643  and  _644
REMARK  258  A    between atoms: _643  and  _646
REMARK  259  A    between atoms: _646  and  _647
REMARK  260  A    between atoms: _652  and  _654
REMARK  261  A    between atoms: _654  and  _655
REMARK  262  A    between atoms: _654  and  _657
REMARK  263  A    between atoms: _657  and  _658
REMARK  264  A    between atoms: _660  and  _662
REMARK  265  A    between atoms: _662  and  _663
REMARK  266  A    between atoms: _662  and  _665
REMARK  267  A    between atoms: _665  and  _666
REMARK  268  A    between atoms: _668  and  _670
REMARK  269  A    between atoms: _670  and  _671
REMARK  270  A    between atoms: _670  and  _673
REMARK  271  A    between atoms: _677  and  _678
REMARK  272  A    between atoms: _683  and  _685
REMARK  273  A    between atoms: _685  and  _686
REMARK  274  A    between atoms: _685  and  _688
REMARK  275  A    between atoms: _688  and  _689
REMARK  276  A    between atoms: _694  and  _695
REMARK  277  A    between atoms: _697  and  _699
REMARK  278  A    between atoms: _699  and  _700
REMARK  279  A    between atoms: _699  and  _702
REMARK  280  A    between atoms: _702  and  _703
REMARK  281  A    between atoms: _703  and  _704
REMARK  282  A    between atoms: _704  and  _705
REMARK  283  A    between atoms: _714  and  _716
REMARK  284  A    between atoms: _716  and  _717
REMARK  285  A    between atoms: _716  and  _719
REMARK  286  A    between atoms: _719  and  _720
REMARK  287  A    between atoms: _725  and  _726
REMARK  288  A    between atoms: _728  and  _730
REMARK  289  A    between atoms: _730  and  _731
REMARK  290  A    between atoms: _730  and  _733
REMARK  291  A    between atoms: _733  and  _734
REMARK  292  A    between atoms: _740  and  _742
REMARK  293  A    between atoms: _742  and  _743
REMARK  294  A    between atoms: _742  and  _745
REMARK  295  A    between atoms: _745  and  _746
REMARK  296  A    between atoms: _748  and  _750
REMARK  297  A    between atoms: _750  and  _751
REMARK  298  A    between atoms: _750  and  _753
REMARK  299  A    between atoms: _753  and  _754
REMARK  300  A    between atoms: _760  and  _762
REMARK  301  A    between atoms: _762  and  _763
REMARK  302  A    between atoms: _762  and  _765
REMARK  303  A    between atoms: _765  and  _766
REMARK  304  A    between atoms: _766  and  _767
REMARK                            x       y       z     vdW  Elec       q    Type
REMARK                         _______ _______ _______ _____ _____    ______ ____
ROOT
ATOM      1  O   HOH     1      17.249   0.789 -12.196  0.00  0.00    +0.000 OA
ENDROOT
TORSDOF 0
REMARK  Name = ../refined-set-2016/2xy9/2xy9_pocket.pdb
REMARK  304 active torsions:
REMARK  status: ('A' for Active; 'I' for Inactive)
REMARK    1  A    between atoms: _1  and  _3
REMARK    2  A    between atoms: _3  and  _4
REMARK    3  A    between atoms: _3  and  _6
REMARK    4  A    between atoms: _6  and  _7
REMARK    5  A    between atoms: _12  and  _14
REMARK    6  A    between atoms: _14  and  _15
REMARK    7  A    between atoms: _14  and  _17
REMARK    8  A    between atoms: _17  and  _18
REMARK    9  A    between atoms: _23  and  _25
REMARK   10  A    between atoms: _25  and  _26
REMARK   11  A    between atoms: _25  and  _28
REMARK   12  A    between atoms: _28  and  _29
REMARK   13  A    between atoms: _29  and  _30
REMARK   14  A    between atoms: _33  and  _35
REMARK   15  A    between atoms: _35  and  _36
REMARK   16  A    between atoms: _35  and  _38
REMARK   17  A    between atoms: _38  and  _39
REMARK   18  A    between atoms: _44  and  _45
REMARK   19  A    between atoms: _47  and  _49
REMARK   20  A    between atoms: _49  and  _50
REMARK   21  A    between atoms: _49  and  _52
REMARK   22  A    between atoms: _52  and  _53
REMARK   23  A    between atoms: _56  and  _58
REMARK   24  A    between atoms: _58  and  _59
REMARK   25  A    between atoms: _61  and  _63
REMARK   26  A    between atoms: _63  and  _64
REMARK   27  A    between atoms: _63  and  _66
REMARK   28  A    between atoms: _66  and  _67
REMARK   29  A    between atoms: _72  and  _74
REMARK   30  A    between atoms: _74  and  _75
REMARK   31  A    between atoms: _74  and  _77
REMARK   32  A    between atoms: _77  and  _78
REMARK   33  A    between atoms: _88  and  _90
REMARK   34  A    between atoms: _90  and  _91
REMARK   35  A    between atoms: _90  and  _93
REMARK   36  A    between atoms: _93  and  _94
REMARK   37  A    between atoms: _94  and  _95
REMARK   38  A    between atoms: _100  and  _102
REMARK   39  A    between atoms: _102  and  _103
REMARK   40  A    between atoms: _102  and  _105
REMARK   41  A    between atoms: _105  and  _106
REMARK   42  A    between atoms: _109  and  _111
REMARK   43  A    between atoms: _111  and  _112
REMARK   44  A    between atoms: _111  and  _114
REMARK   45  A    between atoms: _114  and  _115
REMARK   46  A    between atoms: _125  and  _127
REMARK   47  A    between atoms: _127  and  _128
REMARK   48  A    between atoms: _127  and  _130
REMARK   49  A    between atoms: _130  and  _131
REMARK   50  A    between atoms: _133  and  _135
REMARK   51  A    between atoms: _135  and  _136
REMARK   52  A    between atoms: _135  and  _138
REMARK   53  A    between atoms: _138  and  _139
REMARK   54  A    between atoms: _144  and  _146
REMARK   55  A    between atoms: _146  and  _147
REMARK   56  A    between atoms: _146  and  _149
REMARK   57  A    between atoms: _152  and  _154
REMARK   58  A    between atoms: _154  and  _155
REMARK   59  A    between atoms: _154  and  _157
REMARK   60  A    between atoms: _159  and  _161
REMARK   61  A    between atoms: _161  and  _162
REMARK   62  A    between atoms: _161  and  _164
REMARK   63  A    between atoms: _164  and  _165
REMARK   64  A    between atoms: _170  and  _172
REMARK   65  A    between atoms: _172  and  _173
REMARK   66  A    between atoms: _176  and  _178
REMARK   67  A    between atoms: _178  and  _179
REMARK   68  A    between atoms: _178  and  _181
REMARK   69  A    between atoms: _181  and  _182
REMARK   70  A    between atoms: _184  and  _186
REMARK   71  A    between atoms: _186  and  _187
REMARK   72  A    between atoms: _190  and  _192
REMARK   73  A    between atoms: _192  and  _193
REMARK   74  A    between atoms: _192  and  _195
REMARK   75  A    between atoms: _195  and  _196
REMARK   76  A    between atoms: _206  and  _208
REMARK   77  A    between atoms: _208  and  _209
REMARK   78  A    between atoms: _208  and  _211
REMARK   79  A    between atoms: _211  and  _212
REMARK   80  A    between atoms: _215  and  _217
REMARK   81  A    between atoms: _217  and  _218
REMARK   82  A    between atoms: _217  and  _220
REMARK   83  A    between atoms: _220  and  _221
REMARK   84  A    between atoms: _226  and  _227
REMARK   85  A    between atoms: _229  and  _231
REMARK   86  A    between atoms: _231  and  _232
REMARK   87  A    between atoms: _231  and  _234
REMARK   88  A    between atoms: _234  and  _235
REMARK   89  A    between atoms: _235  and  _236
REMARK   90  A    between atoms: _236  and  _237
REMARK   91  A    between atoms: _246  and  _248
REMARK   92  A    between atoms: _248  and  _249
REMARK   93  A    between atoms: _248  and  _251
REMARK   94  A    between atoms: _251  and  _252
REMARK   95  A    between atoms: _255  and  _257
REMARK   96  A    between atoms: _257  and  _258
REMARK   97  A    between atoms: _257  and  _260
REMARK   98  A    between atoms: _260  and  _261
REMARK   99  A    between atoms: _261  and  _262
REMARK  100  A    between atoms: _262  and  _263
REMARK  101  A    between atoms: _263  and  _264
REMARK  102  A    between atoms: _268  and  _270
REMARK  103  A    between atoms: _270  and  _271
REMARK  104  A    between atoms: _270  and  _273
REMARK  105  A    between atoms: _273  and  _274
REMARK  106  A    between atoms: _274  and  _275
REMARK  107  A    between atoms: _280  and  _282
REMARK  108  A    between atoms: _282  and  _283
REMARK  109  A    between atoms: _282  and  _285
REMARK  110  A    between atoms: _285  and  _286
REMARK  111  A    between atoms: _289  and  _291
REMARK  112  A    between atoms: _291  and  _292
REMARK  113  A    between atoms: _291  and  _294
REMARK  114  A    between atoms: _294  and  _295
REMARK  115  A    between atoms: _295  and  _296
REMARK  116  A    between atoms: _299  and  _301
REMARK  117  A    between atoms: _301  and  _302
REMARK  118  A    between atoms: _301  and  _304
REMARK  119  A    between atoms: _304  and  _305
REMARK  120  A    between atoms: _308  and  _310
REMARK  121  A    between atoms: _310  and  _311
REMARK  122  A    between atoms: _310  and  _313
REMARK  123  A    between atoms: _313  and  _314
REMARK  124  A    between atoms: _317  and  _319
REMARK  125  A    between atoms: _319  and  _320
REMARK  126  A    between atoms: _319  and  _322
REMARK  127  A    between atoms: _325  and  _327
REMARK  128  A    between atoms: _327  and  _328
REMARK  129  A    between atoms: _327  and  _330
REMARK  130  A    between atoms: _333  and  _335
REMARK  131  A    between atoms: _335  and  _336
REMARK  132  A    between atoms: _339  and  _341
REMARK  133  A    between atoms: _341  and  _342
REMARK  134  A    between atoms: _341  and  _344
REMARK  135  A    between atoms: _344  and  _345
REMARK  136  A    between atoms: _350  and  _352
REMARK  137  A    between atoms: _352  and  _353
REMARK  138  A    between atoms: _352  and  _355
REMARK  139  A    between atoms: _355  and  _356
REMARK  140  A    between atoms: _360  and  ZN_772
REMARK  141  A    between atoms: _361  and  _363
REMARK  142  A    between atoms: _363  and  _364
REMARK  143  A    between atoms: _363  and  _366
REMARK  144  A    between atoms: _366  and  _367
REMARK  145  A    between atoms: _367  and  _368
REMARK  146  A    between atoms: _371  and  _373
REMARK  147  A    between atoms: _373  and  _374
REMARK  148  A    between atoms: _373  and  _376
REMARK  149  A    between atoms: _376  and  _377
REMARK  150  A    between atoms: _377  and  _378
REMARK  151  A    between atoms: _380  and  _382
REMARK  152  A    between atoms: _382  and  _383
REMARK  153  A    between atoms: _382  and  _385
REMARK  154  A    between atoms: _385  and  _386
REMARK  155  A    between atoms: _390  and  ZN_772
REMARK  156  A    between atoms: _391  and  _393
REMARK  157  A    between atoms: _393  and  _394
REMARK  158  A    between atoms: _393  and  _396
REMARK  159  A    between atoms: _396  and  _397
REMARK  160  A    between atoms: _400  and  _402
REMARK  161  A    between atoms: _402  and  _403
REMARK  162  A    between atoms: _402  and  _405
REMARK  163  A    between atoms: _405  and  _406
REMARK  164  A    between atoms: _411  and  _412
REMARK  165  A    between atoms: _414  and  _416
REMARK  166  A    between atoms: _416  and  _417
REMARK  167  A    between atoms: _416  and  _419
REMARK  168  A    between atoms: _419  and  _420
REMARK  169  A    between atoms: _426  and  _428
REMARK  170  A    between atoms: _428  and  _429
REMARK  171  A    between atoms: _428  and  _431
REMARK  172  A    between atoms: _431  and  _432
REMARK  173  A    between atoms: _437  and  _438
REMARK  174  A    between atoms: _440  and  _442
REMARK  175  A    between atoms: _442  and  _443
REMARK  176  A    between atoms: _442  and  _445
REMARK  177  A    between atoms: _445  and  _446
REMARK  178  A    between atoms: _446  and  _447
REMARK  179  A    between atoms: _447  and  _448
REMARK  180  A    between atoms: _457  and  _459
REMARK  181  A    between atoms: _459  and  _460
REMARK  182  A    between atoms: _459  and  _462
REMARK  183  A    between atoms: _462  and  _463
REMARK  184  A    between atoms: _463  and  _464
REMARK  185  A    between atoms: _467  and  _469
REMARK  186  A    between atoms: _469  and  _470
REMARK  187  A    between atoms: _472  and  _474
REMARK  188  A    between atoms: _474  and  _475
REMARK  189  A    between atoms: _474  and  _477
REMARK  190  A    between atoms: _477  and  _478
REMARK  191  A    between atoms: _484  and  _485
REMARK  192  A    between atoms: _490  and  _492
REMARK  193  A    between atoms: _492  and  _493
REMARK  194  A    between atoms: _495  and  _497
REMARK  195  A    between atoms: _497  and  _498
REMARK  196  A    between atoms: _497  and  _500
REMARK  197  A    between atoms: _500  and  _501
REMARK  198  A    between atoms: _507  and  _509
REMARK  199  A    between atoms: _509  and  _510
REMARK  200  A    between atoms: _509  and  _512
REMARK  201  A    between atoms: _512  and  _513
REMARK  202  A    between atoms: _518  and  _520
REMARK  203  A    between atoms: _520  and  _521
REMARK  204  A    between atoms: _520  and  _523
REMARK  205  A    between atoms: _523  and  _524
REMARK  206  A    between atoms: _524  and  _525
REMARK  207  A    between atoms: _525  and  _526
REMARK  208  A    between atoms: _526  and  ZN_772
REMARK  209  A    between atoms: _528  and  _530
REMARK  210  A    between atoms: _530  and  _531
REMARK  211  A    between atoms: _534  and  _536
REMARK  212  A    between atoms: _536  and  _537
REMARK  213  A    between atoms: _539  and  _541
REMARK  214  A    between atoms: _541  and  _542
REMARK  215  A    between atoms: _541  and  _544
REMARK  216  A    between atoms: _544  and  _545
REMARK  217  A    between atoms: _548  and  _550
REMARK  218  A    between atoms: _550  and  _551
REMARK  219  A    between atoms: _554  and  _556
REMARK  220  A    between atoms: _556  and  _557
REMARK  221  A    between atoms: _556  and  _559
REMARK  222  A    between atoms: _559  and  _560
REMARK  223  A    between atoms: _563  and  _565
REMARK  224  A    between atoms: _565  and  _566
REMARK  225  A    between atoms: _565  and  _568
REMARK  226  A    between atoms: _568  and  _569
REMARK  227  A    between atoms: _569  and  _570
REMARK  228  A    between atoms: _570  and  _571
REMARK  229  A    between atoms: _571  and  _572
REMARK  230  A    between atoms: _576  and  _578
REMARK  231  A    between atoms: _578  and  _579
REMARK  232  A    between atoms: _578  and  _581
REMARK  233  A    between atoms: _581  and  _582
REMARK  234  A    between atoms: _588  and  _590
REMARK  235  A    between atoms: _590  and  _591
REMARK  236  A    between atoms: _590  and  _593
REMARK  237  A    between atoms: _593  and  _594
REMARK  238  A    between atoms: _600  and  _602
REMARK  239  A    between atoms: _602  and  _603
REMARK  240  A    between atoms: _602  and  _605
REMARK  241  A    between atoms: _605  and  _606
REMARK  242  A    between atoms: _608  and  _610
REMARK  243  A    between atoms: _610  and  _611
REMARK  244  A    between atoms: _610  and  _613
REMARK  245  A    between atoms: _616  and  _618
REMARK  246  A    between atoms: _618  and  _619
REMARK  247  A    between atoms: _618  and  _621
REMARK  248  A    between atoms: _621  and  _622
REMARK  249  A    between atoms: _622  and  _623
REMARK  250  A    between atoms: _623  and  _624
REMARK  251  A    between atoms: _624  and  _625
REMARK  252  A    between atoms: _629  and  _631
REMARK  253  A    between atoms: _631  and  _632
REMARK  254  A    between atoms: _631  and  _634
REMARK  255  A    between atoms: _634  and  _635
REMARK  256  A    between atoms: _641  and  _643
REMARK  257  A    between atoms: _643  and  _644
REMARK  258  A    between atoms: _643  and  _646
REMARK  259  A    between atoms: _646  and  _647
REMARK  260  A    between atoms: _652  and  _654
REMARK  261  A    between atoms: _654  and  _655
REMARK  262  A    between atoms: _654  and  _657
REMARK  263  A    between atoms: _657  and  _658
REMARK  264  A    between atoms: _660  and  _662
REMARK  265  A    between atoms: _662  and  _663
REMARK  266  A    between atoms: _662  and  _665
REMARK  267  A    between atoms: _665  and  _666
REMARK  268  A    between atoms: _668  and  _670
REMARK  269  A    between atoms: _670  and  _671
REMARK  270  A    between atoms: _670  and  _673
REMARK  271  A    between atoms: _677  and  _678
REMARK  272  A    between atoms: _683  and  _685
REMARK  273  A    between atoms: _685  and  _686
REMARK  274  A    between atoms: _685  and  _688
REMARK  275  A    between atoms: _688  and  _689
REMARK  276  A    between atoms: _694  and  _695
REMARK  277  A    between atoms: _697  and  _699
REMARK  278  A    between atoms: _699  and  _700
REMARK  279  A    between atoms: _699  and  _702
REMARK  280  A    between atoms: _702  and  _703
REMARK  281  A    between atoms: _703  and  _704
REMARK  282  A    between atoms: _704  and  _705
REMARK  283  A    between atoms: _714  and  _716
REMARK  284  A    between atoms: _716  and  _717
REMARK  285  A    between atoms: _716  and  _719
REMARK  286  A    between atoms: _719  and  _720
REMARK  287  A    between atoms: _725  and  _726
REMARK  288  A    between atoms: _728  and  _730
REMARK  289  A    between atoms: _730  and  _731
REMARK  290  A    between atoms: _730  and  _733
REMARK  291  A    between atoms: _733  and  _734
REMARK  292  A    between atoms: _740  and  _742
REMARK  293  A    between atoms: _742  and  _743
REMARK  294  A    between atoms: _742  and  _745
REMARK  295  A    between atoms: _745  and  _746
REMARK  296  A    between atoms: _748  and  _750
REMARK  297  A    between atoms: _750  and  _751
REMARK  298  A    between atoms: _750  and  _753
REMARK  299  A    between atoms: _753  and  _754
REMARK  300  A    between atoms: _760  and  _762
REMARK  301  A    between atoms: _762  and  _763
REMARK  302  A    between atoms: _762  and  _765
REMARK  303  A    between atoms: _765  and  _766
REMARK  304  A    between atoms: _766  and  _767
REMARK                            x       y       z     vdW  Elec       q    Type
REMARK                         _______ _______ _______ _____ _____    ______ ____
ROOT
ATOM      1  O   HOH     1      15.879   7.763 -12.036  0.00  0.00    +0.000 OA
ENDROOT
TORSDOF 0
REMARK  Name = ../refined-set-2016/2xy9/2xy9_pocket.pdb
REMARK  304 active torsions:
REMARK  status: ('A' for Active; 'I' for Inactive)
REMARK    1  A    between atoms: _1  and  _3
REMARK    2  A    between atoms: _3  and  _4
REMARK    3  A    between atoms: _3  and  _6
REMARK    4  A    between atoms: _6  and  _7
REMARK    5  A    between atoms: _12  and  _14
REMARK    6  A    between atoms: _14  and  _15
REMARK    7  A    between atoms: _14  and  _17
REMARK    8  A    between atoms: _17  and  _18
REMARK    9  A    between atoms: _23  and  _25
REMARK   10  A    between atoms: _25  and  _26
REMARK   11  A    between atoms: _25  and  _28
REMARK   12  A    between atoms: _28  and  _29
REMARK   13  A    between atoms: _29  and  _30
REMARK   14  A    between atoms: _33  and  _35
REMARK   15  A    between atoms: _35  and  _36
REMARK   16  A    between atoms: _35  and  _38
REMARK   17  A    between atoms: _38  and  _39
REMARK   18  A    between atoms: _44  and  _45
REMARK   19  A    between atoms: _47  and  _49
REMARK   20  A    between atoms: _49  and  _50
REMARK   21  A    between atoms: _49  and  _52
REMARK   22  A    between atoms: _52  and  _53
REMARK   23  A    between atoms: _56  and  _58
REMARK   24  A    between atoms: _58  and  _59
REMARK   25  A    between atoms: _61  and  _63
REMARK   26  A    between atoms: _63  and  _64
REMARK   27  A    between atoms: _63  and  _66
REMARK   28  A    between atoms: _66  and  _67
REMARK   29  A    between atoms: _72  and  _74
REMARK   30  A    between atoms: _74  and  _75
REMARK   31  A    between atoms: _74  and  _77
REMARK   32  A    between atoms: _77  and  _78
REMARK   33  A    between atoms: _88  and  _90
REMARK   34  A    between atoms: _90  and  _91
REMARK   35  A    between atoms: _90  and  _93
REMARK   36  A    between atoms: _93  and  _94
REMARK   37  A    between atoms: _94  and  _95
REMARK   38  A    between atoms: _100  and  _102
REMARK   39  A    between atoms: _102  and  _103
REMARK   40  A    between atoms: _102  and  _105
REMARK   41  A    between atoms: _105  and  _106
REMARK   42  A    between atoms: _109  and  _111
REMARK   43  A    between atoms: _111  and  _112
REMARK   44  A    between atoms: _111  and  _114
REMARK   45  A    between atoms: _114  and  _115
REMARK   46  A    between atoms: _125  and  _127
REMARK   47  A    between atoms: _127  and  _128
REMARK   48  A    between atoms: _127  and  _130
REMARK   49  A    between atoms: _130  and  _131
REMARK   50  A    between atoms: _133  and  _135
REMARK   51  A    between atoms: _135  and  _136
REMARK   52  A    between atoms: _135  and  _138
REMARK   53  A    between atoms: _138  and  _139
REMARK   54  A    between atoms: _144  and  _146
REMARK   55  A    between atoms: _146  and  _147
REMARK   56  A    between atoms: _146  and  _149
REMARK   57  A    between atoms: _152  and  _154
REMARK   58  A    between atoms: _154  and  _155
REMARK   59  A    between atoms: _154  and  _157
REMARK   60  A    between atoms: _159  and  _161
REMARK   61  A    between atoms: _161  and  _162
REMARK   62  A    between atoms: _161  and  _164
REMARK   63  A    between atoms: _164  and  _165
REMARK   64  A    between atoms: _170  and  _172
REMARK   65  A    between atoms: _172  and  _173
REMARK   66  A    between atoms: _176  and  _178
REMARK   67  A    between atoms: _178  and  _179
REMARK   68  A    between atoms: _178  and  _181
REMARK   69  A    between atoms: _181  and  _182
REMARK   70  A    between atoms: _184  and  _186
REMARK   71  A    between atoms: _186  and  _187
REMARK   72  A    between atoms: _190  and  _192
REMARK   73  A    between atoms: _192  and  _193
REMARK   74  A    between atoms: _192  and  _195
REMARK   75  A    between atoms: _195  and  _196
REMARK   76  A    between atoms: _206  and  _208
REMARK   77  A    between atoms: _208  and  _209
REMARK   78  A    between atoms: _208  and  _211
REMARK   79  A    between atoms: _211  and  _212
REMARK   80  A    between atoms: _215  and  _217
REMARK   81  A    between atoms: _217  and  _218
REMARK   82  A    between atoms: _217  and  _220
REMARK   83  A    between atoms: _220  and  _221
REMARK   84  A    between atoms: _226  and  _227
REMARK   85  A    between atoms: _229  and  _231
REMARK   86  A    between atoms: _231  and  _232
REMARK   87  A    between atoms: _231  and  _234
REMARK   88  A    between atoms: _234  and  _235
REMARK   89  A    between atoms: _235  and  _236
REMARK   90  A    between atoms: _236  and  _237
REMARK   91  A    between atoms: _246  and  _248
REMARK   92  A    between atoms: _248  and  _249
REMARK   93  A    between atoms: _248  and  _251
REMARK   94  A    between atoms: _251  and  _252
REMARK   95  A    between atoms: _255  and  _257
REMARK   96  A    between atoms: _257  and  _258
REMARK   97  A    between atoms: _257  and  _260
REMARK   98  A    between atoms: _260  and  _261
REMARK   99  A    between atoms: _261  and  _262
REMARK  100  A    between atoms: _262  and  _263
REMARK  101  A    between atoms: _263  and  _264
REMARK  102  A    between atoms: _268  and  _270
REMARK  103  A    between atoms: _270  and  _271
REMARK  104  A    between atoms: _270  and  _273
REMARK  105  A    between atoms: _273  and  _274
REMARK  106  A    between atoms: _274  and  _275
REMARK  107  A    between atoms: _280  and  _282
REMARK  108  A    between atoms: _282  and  _283
REMARK  109  A    between atoms: _282  and  _285
REMARK  110  A    between atoms: _285  and  _286
REMARK  111  A    between atoms: _289  and  _291
REMARK  112  A    between atoms: _291  and  _292
REMARK  113  A    between atoms: _291  and  _294
REMARK  114  A    between atoms: _294  and  _295
REMARK  115  A    between atoms: _295  and  _296
REMARK  116  A    between atoms: _299  and  _301
REMARK  117  A    between atoms: _301  and  _302
REMARK  118  A    between atoms: _301  and  _304
REMARK  119  A    between atoms: _304  and  _305
REMARK  120  A    between atoms: _308  and  _310
REMARK  121  A    between atoms: _310  and  _311
REMARK  122  A    between atoms: _310  and  _313
REMARK  123  A    between atoms: _313  and  _314
REMARK  124  A    between atoms: _317  and  _319
REMARK  125  A    between atoms: _319  and  _320
REMARK  126  A    between atoms: _319  and  _322
REMARK  127  A    between atoms: _325  and  _327
REMARK  128  A    between atoms: _327  and  _328
REMARK  129  A    between atoms: _327  and  _330
REMARK  130  A    between atoms: _333  and  _335
REMARK  131  A    between atoms: _335  and  _336
REMARK  132  A    between atoms: _339  and  _341
REMARK  133  A    between atoms: _341  and  _342
REMARK  134  A    between atoms: _341  and  _344
REMARK  135  A    between atoms: _344  and  _345
REMARK  136  A    between atoms: _350  and  _352
REMARK  137  A    between atoms: _352  and  _353
REMARK  138  A    between atoms: _352  and  _355
REMARK  139  A    between atoms: _355  and  _356
REMARK  140  A    between atoms: _360  and  ZN_772
REMARK  141  A    between atoms: _361  and  _363
REMARK  142  A    between atoms: _363  and  _364
REMARK  143  A    between atoms: _363  and  _366
REMARK  144  A    between atoms: _366  and  _367
REMARK  145  A    between atoms: _367  and  _368
REMARK  146  A    between atoms: _371  and  _373
REMARK  147  A    between atoms: _373  and  _374
REMARK  148  A    between atoms: _373  and  _376
REMARK  149  A    between atoms: _376  and  _377
REMARK  150  A    between atoms: _377  and  _378
REMARK  151  A    between atoms: _380  and  _382
REMARK  152  A    between atoms: _382  and  _383
REMARK  153  A    between atoms: _382  and  _385
REMARK  154  A    between atoms: _385  and  _386
REMARK  155  A    between atoms: _390  and  ZN_772
REMARK  156  A    between atoms: _391  and  _393
REMARK  157  A    between atoms: _393  and  _394
REMARK  158  A    between atoms: _393  and  _396
REMARK  159  A    between atoms: _396  and  _397
REMARK  160  A    between atoms: _400  and  _402
REMARK  161  A    between atoms: _402  and  _403
REMARK  162  A    between atoms: _402  and  _405
REMARK  163  A    between atoms: _405  and  _406
REMARK  164  A    between atoms: _411  and  _412
REMARK  165  A    between atoms: _414  and  _416
REMARK  166  A    between atoms: _416  and  _417
REMARK  167  A    between atoms: _416  and  _419
REMARK  168  A    between atoms: _419  and  _420
REMARK  169  A    between atoms: _426  and  _428
REMARK  170  A    between atoms: _428  and  _429
REMARK  171  A    between atoms: _428  and  _431
REMARK  172  A    between atoms: _431  and  _432
REMARK  173  A    between atoms: _437  and  _438
REMARK  174  A    between atoms: _440  and  _442
REMARK  175  A    between atoms: _442  and  _443
REMARK  176  A    between atoms: _442  and  _445
REMARK  177  A    between atoms: _445  and  _446
REMARK  178  A    between atoms: _446  and  _447
REMARK  179  A    between atoms: _447  and  _448
REMARK  180  A    between atoms: _457  and  _459
REMARK  181  A    between atoms: _459  and  _460
REMARK  182  A    between atoms: _459  and  _462
REMARK  183  A    between atoms: _462  and  _463
REMARK  184  A    between atoms: _463  and  _464
REMARK  185  A    between atoms: _467  and  _469
REMARK  186  A    between atoms: _469  and  _470
REMARK  187  A    between atoms: _472  and  _474
REMARK  188  A    between atoms: _474  and  _475
REMARK  189  A    between atoms: _474  and  _477
REMARK  190  A    between atoms: _477  and  _478
REMARK  191  A    between atoms: _484  and  _485
REMARK  192  A    between atoms: _490  and  _492
REMARK  193  A    between atoms: _492  and  _493
REMARK  194  A    between atoms: _495  and  _497
REMARK  195  A    between atoms: _497  and  _498
REMARK  196  A    between atoms: _497  and  _500
REMARK  197  A    between atoms: _500  and  _501
REMARK  198  A    between atoms: _507  and  _509
REMARK  199  A    between atoms: _509  and  _510
REMARK  200  A    between atoms: _509  and  _512
REMARK  201  A    between atoms: _512  and  _513
REMARK  202  A    between atoms: _518  and  _520
REMARK  203  A    between atoms: _520  and  _521
REMARK  204  A    between atoms: _520  and  _523
REMARK  205  A    between atoms: _523  and  _524
REMARK  206  A    between atoms: _524  and  _525
REMARK  207  A    between atoms: _525  and  _526
REMARK  208  A    between atoms: _526  and  ZN_772
REMARK  209  A    between atoms: _528  and  _530
REMARK  210  A    between atoms: _530  and  _531
REMARK  211  A    between atoms: _534  and  _536
REMARK  212  A    between atoms: _536  and  _537
REMARK  213  A    between atoms: _539  and  _541
REMARK  214  A    between atoms: _541  and  _542
REMARK  215  A    between atoms: _541  and  _544
REMARK  216  A    between atoms: _544  and  _545
REMARK  217  A    between atoms: _548  and  _550
REMARK  218  A    between atoms: _550  and  _551
REMARK  219  A    between atoms: _554  and  _556
REMARK  220  A    between atoms: _556  and  _557
REMARK  221  A    between atoms: _556  and  _559
REMARK  222  A    between atoms: _559  and  _560
REMARK  223  A    between atoms: _563  and  _565
REMARK  224  A    between atoms: _565  and  _566
REMARK  225  A    between atoms: _565  and  _568
REMARK  226  A    between atoms: _568  and  _569
REMARK  227  A    between atoms: _569  and  _570
REMARK  228  A    between atoms: _570  and  _571
REMARK  229  A    between atoms: _571  and  _572
REMARK  230  A    between atoms: _576  and  _578
REMARK  231  A    between atoms: _578  and  _579
REMARK  232  A    between atoms: _578  and  _581
REMARK  233  A    between atoms: _581  and  _582
REMARK  234  A    between atoms: _588  and  _590
REMARK  235  A    between atoms: _590  and  _591
REMARK  236  A    between atoms: _590  and  _593
REMARK  237  A    between atoms: _593  and  _594
REMARK  238  A    between atoms: _600  and  _602
REMARK  239  A    between atoms: _602  and  _603
REMARK  240  A    between atoms: _602  and  _605
REMARK  241  A    between atoms: _605  and  _606
REMARK  242  A    between atoms: _608  and  _610
REMARK  243  A    between atoms: _610  and  _611
REMARK  244  A    between atoms: _610  and  _613
REMARK  245  A    between atoms: _616  and  _618
REMARK  246  A    between atoms: _618  and  _619
REMARK  247  A    between atoms: _618  and  _621
REMARK  248  A    between atoms: _621  and  _622
REMARK  249  A    between atoms: _622  and  _623
REMARK  250  A    between atoms: _623  and  _624
REMARK  251  A    between atoms: _624  and  _625
REMARK  252  A    between atoms: _629  and  _631
REMARK  253  A    between atoms: _631  and  _632
REMARK  254  A    between atoms: _631  and  _634
REMARK  255  A    between atoms: _634  and  _635
REMARK  256  A    between atoms: _641  and  _643
REMARK  257  A    between atoms: _643  and  _644
REMARK  258  A    between atoms: _643  and  _646
REMARK  259  A    between atoms: _646  and  _647
REMARK  260  A    between atoms: _652  and  _654
REMARK  261  A    between atoms: _654  and  _655
REMARK  262  A    between atoms: _654  and  _657
REMARK  263  A    between atoms: _657  and  _658
REMARK  264  A    between atoms: _660  and  _662
REMARK  265  A    between atoms: _662  and  _663
REMARK  266  A    between atoms: _662  and  _665
REMARK  267  A    between atoms: _665  and  _666
REMARK  268  A    between atoms: _668  and  _670
REMARK  269  A    between atoms: _670  and  _671
REMARK  270  A    between atoms: _670  and  _673
REMARK  271  A    between atoms: _677  and  _678
REMARK  272  A    between atoms: _683  and  _685
REMARK  273  A    between atoms: _685  and  _686
REMARK  274  A    between atoms: _685  and  _688
REMARK  275  A    between atoms: _688  and  _689
REMARK  276  A    between atoms: _694  and  _695
REMARK  277  A    between atoms: _697  and  _699
REMARK  278  A    between atoms: _699  and  _700
REMARK  279  A    between atoms: _699  and  _702
REMARK  280  A    between atoms: _702  and  _703
REMARK  281  A    between atoms: _703  and  _704
REMARK  282  A    between atoms: _704  and  _705
REMARK  283  A    between atoms: _714  and  _716
REMARK  284  A    between atoms: _716  and  _717
REMARK  285  A    between atoms: _716  and  _719
REMARK  286  A    between atoms: _719  and  _720
REMARK  287  A    between atoms: _725  and  _726
REMARK  288  A    between atoms: _728  and  _730
REMARK  289  A    between atoms: _730  and  _731
REMARK  290  A    between atoms: _730  and  _733
REMARK  291  A    between atoms: _733  and  _734
REMARK  292  A    between atoms: _740  and  _742
REMARK  293  A    between atoms: _742  and  _743
REMARK  294  A    between atoms: _742  and  _745
REMARK  295  A    between atoms: _745  and  _746
REMARK  296  A    between atoms: _748  and  _750
REMARK  297  A    between atoms: _750  and  _751
REMARK  298  A    between atoms: _750  and  _753
REMARK  299  A    between atoms: _753  and  _754
REMARK  300  A    between atoms: _760  and  _762
REMARK  301  A    between atoms: _762  and  _763
REMARK  302  A    between atoms: _762  and  _765
REMARK  303  A    between atoms: _765  and  _766
REMARK  304  A    between atoms: _766  and  _767
REMARK                            x       y       z     vdW  Elec       q    Type
REMARK                         _______ _______ _______ _____ _____    ______ ____
ROOT
ATOM      1  O   HOH     1      17.323   3.449 -12.423  0.00  0.00    +0.000 OA
ENDROOT
TORSDOF 0
REMARK  Name = ../refined-set-2016/2xy9/2xy9_pocket.pdb
REMARK  304 active torsions:
REMARK  status: ('A' for Active; 'I' for Inactive)
REMARK    1  A    between atoms: _1  and  _3
REMARK    2  A    between atoms: _3  and  _4
REMARK    3  A    between atoms: _3  and  _6
REMARK    4  A    between atoms: _6  and  _7
REMARK    5  A    between atoms: _12  and  _14
REMARK    6  A    between atoms: _14  and  _15
REMARK    7  A    between atoms: _14  and  _17
REMARK    8  A    between atoms: _17  and  _18
REMARK    9  A    between atoms: _23  and  _25
REMARK   10  A    between atoms: _25  and  _26
REMARK   11  A    between atoms: _25  and  _28
REMARK   12  A    between atoms: _28  and  _29
REMARK   13  A    between atoms: _29  and  _30
REMARK   14  A    between atoms: _33  and  _35
REMARK   15  A    between atoms: _35  and  _36
REMARK   16  A    between atoms: _35  and  _38
REMARK   17  A    between atoms: _38  and  _39
REMARK   18  A    between atoms: _44  and  _45
REMARK   19  A    between atoms: _47  and  _49
REMARK   20  A    between atoms: _49  and  _50
REMARK   21  A    between atoms: _49  and  _52
REMARK   22  A    between atoms: _52  and  _53
REMARK   23  A    between atoms: _56  and  _58
REMARK   24  A    between atoms: _58  and  _59
REMARK   25  A    between atoms: _61  and  _63
REMARK   26  A    between atoms: _63  and  _64
REMARK   27  A    between atoms: _63  and  _66
REMARK   28  A    between atoms: _66  and  _67
REMARK   29  A    between atoms: _72  and  _74
REMARK   30  A    between atoms: _74  and  _75
REMARK   31  A    between atoms: _74  and  _77
REMARK   32  A    between atoms: _77  and  _78
REMARK   33  A    between atoms: _88  and  _90
REMARK   34  A    between atoms: _90  and  _91
REMARK   35  A    between atoms: _90  and  _93
REMARK   36  A    between atoms: _93  and  _94
REMARK   37  A    between atoms: _94  and  _95
REMARK   38  A    between atoms: _100  and  _102
REMARK   39  A    between atoms: _102  and  _103
REMARK   40  A    between atoms: _102  and  _105
REMARK   41  A    between atoms: _105  and  _106
REMARK   42  A    between atoms: _109  and  _111
REMARK   43  A    between atoms: _111  and  _112
REMARK   44  A    between atoms: _111  and  _114
REMARK   45  A    between atoms: _114  and  _115
REMARK   46  A    between atoms: _125  and  _127
REMARK   47  A    between atoms: _127  and  _128
REMARK   48  A    between atoms: _127  and  _130
REMARK   49  A    between atoms: _130  and  _131
REMARK   50  A    between atoms: _133  and  _135
REMARK   51  A    between atoms: _135  and  _136
REMARK   52  A    between atoms: _135  and  _138
REMARK   53  A    between atoms: _138  and  _139
REMARK   54  A    between atoms: _144  and  _146
REMARK   55  A    between atoms: _146  and  _147
REMARK   56  A    between atoms: _146  and  _149
REMARK   57  A    between atoms: _152  and  _154
REMARK   58  A    between atoms: _154  and  _155
REMARK   59  A    between atoms: _154  and  _157
REMARK   60  A    between atoms: _159  and  _161
REMARK   61  A    between atoms: _161  and  _162
REMARK   62  A    between atoms: _161  and  _164
REMARK   63  A    between atoms: _164  and  _165
REMARK   64  A    between atoms: _170  and  _172
REMARK   65  A    between atoms: _172  and  _173
REMARK   66  A    between atoms: _176  and  _178
REMARK   67  A    between atoms: _178  and  _179
REMARK   68  A    between atoms: _178  and  _181
REMARK   69  A    between atoms: _181  and  _182
REMARK   70  A    between atoms: _184  and  _186
REMARK   71  A    between atoms: _186  and  _187
REMARK   72  A    between atoms: _190  and  _192
REMARK   73  A    between atoms: _192  and  _193
REMARK   74  A    between atoms: _192  and  _195
REMARK   75  A    between atoms: _195  and  _196
REMARK   76  A    between atoms: _206  and  _208
REMARK   77  A    between atoms: _208  and  _209
REMARK   78  A    between atoms: _208  and  _211
REMARK   79  A    between atoms: _211  and  _212
REMARK   80  A    between atoms: _215  and  _217
REMARK   81  A    between atoms: _217  and  _218
REMARK   82  A    between atoms: _217  and  _220
REMARK   83  A    between atoms: _220  and  _221
REMARK   84  A    between atoms: _226  and  _227
REMARK   85  A    between atoms: _229  and  _231
REMARK   86  A    between atoms: _231  and  _232
REMARK   87  A    between atoms: _231  and  _234
REMARK   88  A    between atoms: _234  and  _235
REMARK   89  A    between atoms: _235  and  _236
REMARK   90  A    between atoms: _236  and  _237
REMARK   91  A    between atoms: _246  and  _248
REMARK   92  A    between atoms: _248  and  _249
REMARK   93  A    between atoms: _248  and  _251
REMARK   94  A    between atoms: _251  and  _252
REMARK   95  A    between atoms: _255  and  _257
REMARK   96  A    between atoms: _257  and  _258
REMARK   97  A    between atoms: _257  and  _260
REMARK   98  A    between atoms: _260  and  _261
REMARK   99  A    between atoms: _261  and  _262
REMARK  100  A    between atoms: _262  and  _263
REMARK  101  A    between atoms: _263  and  _264
REMARK  102  A    between atoms: _268  and  _270
REMARK  103  A    between atoms: _270  and  _271
REMARK  104  A    between atoms: _270  and  _273
REMARK  105  A    between atoms: _273  and  _274
REMARK  106  A    between atoms: _274  and  _275
REMARK  107  A    between atoms: _280  and  _282
REMARK  108  A    between atoms: _282  and  _283
REMARK  109  A    between atoms: _282  and  _285
REMARK  110  A    between atoms: _285  and  _286
REMARK  111  A    between atoms: _289  and  _291
REMARK  112  A    between atoms: _291  and  _292
REMARK  113  A    between atoms: _291  and  _294
REMARK  114  A    between atoms: _294  and  _295
REMARK  115  A    between atoms: _295  and  _296
REMARK  116  A    between atoms: _299  and  _301
REMARK  117  A    between atoms: _301  and  _302
REMARK  118  A    between atoms: _301  and  _304
REMARK  119  A    between atoms: _304  and  _305
REMARK  120  A    between atoms: _308  and  _310
REMARK  121  A    between atoms: _310  and  _311
REMARK  122  A    between atoms: _310  and  _313
REMARK  123  A    between atoms: _313  and  _314
REMARK  124  A    between atoms: _317  and  _319
REMARK  125  A    between atoms: _319  and  _320
REMARK  126  A    between atoms: _319  and  _322
REMARK  127  A    between atoms: _325  and  _327
REMARK  128  A    between atoms: _327  and  _328
REMARK  129  A    between atoms: _327  and  _330
REMARK  130  A    between atoms: _333  and  _335
REMARK  131  A    between atoms: _335  and  _336
REMARK  132  A    between atoms: _339  and  _341
REMARK  133  A    between atoms: _341  and  _342
REMARK  134  A    between atoms: _341  and  _344
REMARK  135  A    between atoms: _344  and  _345
REMARK  136  A    between atoms: _350  and  _352
REMARK  137  A    between atoms: _352  and  _353
REMARK  138  A    between atoms: _352  and  _355
REMARK  139  A    between atoms: _355  and  _356
REMARK  140  A    between atoms: _360  and  ZN_772
REMARK  141  A    between atoms: _361  and  _363
REMARK  142  A    between atoms: _363  and  _364
REMARK  143  A    between atoms: _363  and  _366
REMARK  144  A    between atoms: _366  and  _367
REMARK  145  A    between atoms: _367  and  _368
REMARK  146  A    between atoms: _371  and  _373
REMARK  147  A    between atoms: _373  and  _374
REMARK  148  A    between atoms: _373  and  _376
REMARK  149  A    between atoms: _376  and  _377
REMARK  150  A    between atoms: _377  and  _378
REMARK  151  A    between atoms: _380  and  _382
REMARK  152  A    between atoms: _382  and  _383
REMARK  153  A    between atoms: _382  and  _385
REMARK  154  A    between atoms: _385  and  _386
REMARK  155  A    between atoms: _390  and  ZN_772
REMARK  156  A    between atoms: _391  and  _393
REMARK  157  A    between atoms: _393  and  _394
REMARK  158  A    between atoms: _393  and  _396
REMARK  159  A    between atoms: _396  and  _397
REMARK  160  A    between atoms: _400  and  _402
REMARK  161  A    between atoms: _402  and  _403
REMARK  162  A    between atoms: _402  and  _405
REMARK  163  A    between atoms: _405  and  _406
REMARK  164  A    between atoms: _411  and  _412
REMARK  165  A    between atoms: _414  and  _416
REMARK  166  A    between atoms: _416  and  _417
REMARK  167  A    between atoms: _416  and  _419
REMARK  168  A    between atoms: _419  and  _420
REMARK  169  A    between atoms: _426  and  _428
REMARK  170  A    between atoms: _428  and  _429
REMARK  171  A    between atoms: _428  and  _431
REMARK  172  A    between atoms: _431  and  _432
REMARK  173  A    between atoms: _437  and  _438
REMARK  174  A    between atoms: _440  and  _442
REMARK  175  A    between atoms: _442  and  _443
REMARK  176  A    between atoms: _442  and  _445
REMARK  177  A    between atoms: _445  and  _446
REMARK  178  A    between atoms: _446  and  _447
REMARK  179  A    between atoms: _447  and  _448
REMARK  180  A    between atoms: _457  and  _459
REMARK  181  A    between atoms: _459  and  _460
REMARK  182  A    between atoms: _459  and  _462
REMARK  183  A    between atoms: _462  and  _463
REMARK  184  A    between atoms: _463  and  _464
REMARK  185  A    between atoms: _467  and  _469
REMARK  186  A    between atoms: _469  and  _470
REMARK  187  A    between atoms: _472  and  _474
REMARK  188  A    between atoms: _474  and  _475
REMARK  189  A    between atoms: _474  and  _477
REMARK  190  A    between atoms: _477  and  _478
REMARK  191  A    between atoms: _484  and  _485
REMARK  192  A    between atoms: _490  and  _492
REMARK  193  A    between atoms: _492  and  _493
REMARK  194  A    between atoms: _495  and  _497
REMARK  195  A    between atoms: _497  and  _498
REMARK  196  A    between atoms: _497  and  _500
REMARK  197  A    between atoms: _500  and  _501
REMARK  198  A    between atoms: _507  and  _509
REMARK  199  A    between atoms: _509  and  _510
REMARK  200  A    between atoms: _509  and  _512
REMARK  201  A    between atoms: _512  and  _513
REMARK  202  A    between atoms: _518  and  _520
REMARK  203  A    between atoms: _520  and  _521
REMARK  204  A    between atoms: _520  and  _523
REMARK  205  A    between atoms: _523  and  _524
REMARK  206  A    between atoms: _524  and  _525
REMARK  207  A    between atoms: _525  and  _526
REMARK  208  A    between atoms: _526  and  ZN_772
REMARK  209  A    between atoms: _528  and  _530
REMARK  210  A    between atoms: _530  and  _531
REMARK  211  A    between atoms: _534  and  _536
REMARK  212  A    between atoms: _536  and  _537
REMARK  213  A    between atoms: _539  and  _541
REMARK  214  A    between atoms: _541  and  _542
REMARK  215  A    between atoms: _541  and  _544
REMARK  216  A    between atoms: _544  and  _545
REMARK  217  A    between atoms: _548  and  _550
REMARK  218  A    between atoms: _550  and  _551
REMARK  219  A    between atoms: _554  and  _556
REMARK  220  A    between atoms: _556  and  _557
REMARK  221  A    between atoms: _556  and  _559
REMARK  222  A    between atoms: _559  and  _560
REMARK  223  A    between atoms: _563  and  _565
REMARK  224  A    between atoms: _565  and  _566
REMARK  225  A    between atoms: _565  and  _568
REMARK  226  A    between atoms: _568  and  _569
REMARK  227  A    between atoms: _569  and  _570
REMARK  228  A    between atoms: _570  and  _571
REMARK  229  A    between atoms: _571  and  _572
REMARK  230  A    between atoms: _576  and  _578
REMARK  231  A    between atoms: _578  and  _579
REMARK  232  A    between atoms: _578  and  _581
REMARK  233  A    between atoms: _581  and  _582
REMARK  234  A    between atoms: _588  and  _590
REMARK  235  A    between atoms: _590  and  _591
REMARK  236  A    between atoms: _590  and  _593
REMARK  237  A    between atoms: _593  and  _594
REMARK  238  A    between atoms: _600  and  _602
REMARK  239  A    between atoms: _602  and  _603
REMARK  240  A    between atoms: _602  and  _605
REMARK  241  A    between atoms: _605  and  _606
REMARK  242  A    between atoms: _608  and  _610
REMARK  243  A    between atoms: _610  and  _611
REMARK  244  A    between atoms: _610  and  _613
REMARK  245  A    between atoms: _616  and  _618
REMARK  246  A    between atoms: _618  and  _619
REMARK  247  A    between atoms: _618  and  _621
REMARK  248  A    between atoms: _621  and  _622
REMARK  249  A    between atoms: _622  and  _623
REMARK  250  A    between atoms: _623  and  _624
REMARK  251  A    between atoms: _624  and  _625
REMARK  252  A    between atoms: _629  and  _631
REMARK  253  A    between atoms: _631  and  _632
REMARK  254  A    between atoms: _631  and  _634
REMARK  255  A    between atoms: _634  and  _635
REMARK  256  A    between atoms: _641  and  _643
REMARK  257  A    between atoms: _643  and  _644
REMARK  258  A    between atoms: _643  and  _646
REMARK  259  A    between atoms: _646  and  _647
REMARK  260  A    between atoms: _652  and  _654
REMARK  261  A    between atoms: _654  and  _655
REMARK  262  A    between atoms: _654  and  _657
REMARK  263  A    between atoms: _657  and  _658
REMARK  264  A    between atoms: _660  and  _662
REMARK  265  A    between atoms: _662  and  _663
REMARK  266  A    between atoms: _662  and  _665
REMARK  267  A    between atoms: _665  and  _666
REMARK  268  A    between atoms: _668  and  _670
REMARK  269  A    between atoms: _670  and  _671
REMARK  270  A    between atoms: _670  and  _673
REMARK  271  A    between atoms: _677  and  _678
REMARK  272  A    between atoms: _683  and  _685
REMARK  273  A    between atoms: _685  and  _686
REMARK  274  A    between atoms: _685  and  _688
REMARK  275  A    between atoms: _688  and  _689
REMARK  276  A    between atoms: _694  and  _695
REMARK  277  A    between atoms: _697  and  _699
REMARK  278  A    between atoms: _699  and  _700
REMARK  279  A    between atoms: _699  and  _702
REMARK  280  A    between atoms: _702  and  _703
REMARK  281  A    between atoms: _703  and  _704
REMARK  282  A    between atoms: _704  and  _705
REMARK  283  A    between atoms: _714  and  _716
REMARK  284  A    between atoms: _716  and  _717
REMARK  285  A    between atoms: _716  and  _719
REMARK  286  A    between atoms: _719  and  _720
REMARK  287  A    between atoms: _725  and  _726
REMARK  288  A    between atoms: _728  and  _730
REMARK  289  A    between atoms: _730  and  _731
REMARK  290  A    between atoms: _730  and  _733
REMARK  291  A    between atoms: _733  and  _734
REMARK  292  A    between atoms: _740  and  _742
REMARK  293  A    between atoms: _742  and  _743
REMARK  294  A    between atoms: _742  and  _745
REMARK  295  A    between atoms: _745  and  _746
REMARK  296  A    between atoms: _748  and  _750
REMARK  297  A    between atoms: _750  and  _751
REMARK  298  A    between atoms: _750  and  _753
REMARK  299  A    between atoms: _753  and  _754
REMARK  300  A    between atoms: _760  and  _762
REMARK  301  A    between atoms: _762  and  _763
REMARK  302  A    between atoms: _762  and  _765
REMARK  303  A    between atoms: _765  and  _766
REMARK  304  A    between atoms: _766  and  _767
REMARK                            x       y       z     vdW  Elec       q    Type
REMARK                         _______ _______ _______ _____ _____    ______ ____
ROOT
ATOM      1  O   HOH     1      18.421 -12.119 -32.275  0.00  0.00    +0.000 OA
ENDROOT
TORSDOF 0
REMARK  Name = ../refined-set-2016/2xy9/2xy9_pocket.pdb
REMARK  304 active torsions:
REMARK  status: ('A' for Active; 'I' for Inactive)
REMARK    1  A    between atoms: _1  and  _3
REMARK    2  A    between atoms: _3  and  _4
REMARK    3  A    between atoms: _3  and  _6
REMARK    4  A    between atoms: _6  and  _7
REMARK    5  A    between atoms: _12  and  _14
REMARK    6  A    between atoms: _14  and  _15
REMARK    7  A    between atoms: _14  and  _17
REMARK    8  A    between atoms: _17  and  _18
REMARK    9  A    between atoms: _23  and  _25
REMARK   10  A    between atoms: _25  and  _26
REMARK   11  A    between atoms: _25  and  _28
REMARK   12  A    between atoms: _28  and  _29
REMARK   13  A    between atoms: _29  and  _30
REMARK   14  A    between atoms: _33  and  _35
REMARK   15  A    between atoms: _35  and  _36
REMARK   16  A    between atoms: _35  and  _38
REMARK   17  A    between atoms: _38  and  _39
REMARK   18  A    between atoms: _44  and  _45
REMARK   19  A    between atoms: _47  and  _49
REMARK   20  A    between atoms: _49  and  _50
REMARK   21  A    between atoms: _49  and  _52
REMARK   22  A    between atoms: _52  and  _53
REMARK   23  A    between atoms: _56  and  _58
REMARK   24  A    between atoms: _58  and  _59
REMARK   25  A    between atoms: _61  and  _63
REMARK   26  A    between atoms: _63  and  _64
REMARK   27  A    between atoms: _63  and  _66
REMARK   28  A    between atoms: _66  and  _67
REMARK   29  A    between atoms: _72  and  _74
REMARK   30  A    between atoms: _74  and  _75
REMARK   31  A    between atoms: _74  and  _77
REMARK   32  A    between atoms: _77  and  _78
REMARK   33  A    between atoms: _88  and  _90
REMARK   34  A    between atoms: _90  and  _91
REMARK   35  A    between atoms: _90  and  _93
REMARK   36  A    between atoms: _93  and  _94
REMARK   37  A    between atoms: _94  and  _95
REMARK   38  A    between atoms: _100  and  _102
REMARK   39  A    between atoms: _102  and  _103
REMARK   40  A    between atoms: _102  and  _105
REMARK   41  A    between atoms: _105  and  _106
REMARK   42  A    between atoms: _109  and  _111
REMARK   43  A    between atoms: _111  and  _112
REMARK   44  A    between atoms: _111  and  _114
REMARK   45  A    between atoms: _114  and  _115
REMARK   46  A    between atoms: _125  and  _127
REMARK   47  A    between atoms: _127  and  _128
REMARK   48  A    between atoms: _127  and  _130
REMARK   49  A    between atoms: _130  and  _131
REMARK   50  A    between atoms: _133  and  _135
REMARK   51  A    between atoms: _135  and  _136
REMARK   52  A    between atoms: _135  and  _138
REMARK   53  A    between atoms: _138  and  _139
REMARK   54  A    between atoms: _144  and  _146
REMARK   55  A    between atoms: _146  and  _147
REMARK   56  A    between atoms: _146  and  _149
REMARK   57  A    between atoms: _152  and  _154
REMARK   58  A    between atoms: _154  and  _155
REMARK   59  A    between atoms: _154  and  _157
REMARK   60  A    between atoms: _159  and  _161
REMARK   61  A    between atoms: _161  and  _162
REMARK   62  A    between atoms: _161  and  _164
REMARK   63  A    between atoms: _164  and  _165
REMARK   64  A    between atoms: _170  and  _172
REMARK   65  A    between atoms: _172  and  _173
REMARK   66  A    between atoms: _176  and  _178
REMARK   67  A    between atoms: _178  and  _179
REMARK   68  A    between atoms: _178  and  _181
REMARK   69  A    between atoms: _181  and  _182
REMARK   70  A    between atoms: _184  and  _186
REMARK   71  A    between atoms: _186  and  _187
REMARK   72  A    between atoms: _190  and  _192
REMARK   73  A    between atoms: _192  and  _193
REMARK   74  A    between atoms: _192  and  _195
REMARK   75  A    between atoms: _195  and  _196
REMARK   76  A    between atoms: _206  and  _208
REMARK   77  A    between atoms: _208  and  _209
REMARK   78  A    between atoms: _208  and  _211
REMARK   79  A    between atoms: _211  and  _212
REMARK   80  A    between atoms: _215  and  _217
REMARK   81  A    between atoms: _217  and  _218
REMARK   82  A    between atoms: _217  and  _220
REMARK   83  A    between atoms: _220  and  _221
REMARK   84  A    between atoms: _226  and  _227
REMARK   85  A    between atoms: _229  and  _231
REMARK   86  A    between atoms: _231  and  _232
REMARK   87  A    between atoms: _231  and  _234
REMARK   88  A    between atoms: _234  and  _235
REMARK   89  A    between atoms: _235  and  _236
REMARK   90  A    between atoms: _236  and  _237
REMARK   91  A    between atoms: _246  and  _248
REMARK   92  A    between atoms: _248  and  _249
REMARK   93  A    between atoms: _248  and  _251
REMARK   94  A    between atoms: _251  and  _252
REMARK   95  A    between atoms: _255  and  _257
REMARK   96  A    between atoms: _257  and  _258
REMARK   97  A    between atoms: _257  and  _260
REMARK   98  A    between atoms: _260  and  _261
REMARK   99  A    between atoms: _261  and  _262
REMARK  100  A    between atoms: _262  and  _263
REMARK  101  A    between atoms: _263  and  _264
REMARK  102  A    between atoms: _268  and  _270
REMARK  103  A    between atoms: _270  and  _271
REMARK  104  A    between atoms: _270  and  _273
REMARK  105  A    between atoms: _273  and  _274
REMARK  106  A    between atoms: _274  and  _275
REMARK  107  A    between atoms: _280  and  _282
REMARK  108  A    between atoms: _282  and  _283
REMARK  109  A    between atoms: _282  and  _285
REMARK  110  A    between atoms: _285  and  _286
REMARK  111  A    between atoms: _289  and  _291
REMARK  112  A    between atoms: _291  and  _292
REMARK  113  A    between atoms: _291  and  _294
REMARK  114  A    between atoms: _294  and  _295
REMARK  115  A    between atoms: _295  and  _296
REMARK  116  A    between atoms: _299  and  _301
REMARK  117  A    between atoms: _301  and  _302
REMARK  118  A    between atoms: _301  and  _304
REMARK  119  A    between atoms: _304  and  _305
REMARK  120  A    between atoms: _308  and  _310
REMARK  121  A    between atoms: _310  and  _311
REMARK  122  A    between atoms: _310  and  _313
REMARK  123  A    between atoms: _313  and  _314
REMARK  124  A    between atoms: _317  and  _319
REMARK  125  A    between atoms: _319  and  _320
REMARK  126  A    between atoms: _319  and  _322
REMARK  127  A    between atoms: _325  and  _327
REMARK  128  A    between atoms: _327  and  _328
REMARK  129  A    between atoms: _327  and  _330
REMARK  130  A    between atoms: _333  and  _335
REMARK  131  A    between atoms: _335  and  _336
REMARK  132  A    between atoms: _339  and  _341
REMARK  133  A    between atoms: _341  and  _342
REMARK  134  A    between atoms: _341  and  _344
REMARK  135  A    between atoms: _344  and  _345
REMARK  136  A    between atoms: _350  and  _352
REMARK  137  A    between atoms: _352  and  _353
REMARK  138  A    between atoms: _352  and  _355
REMARK  139  A    between atoms: _355  and  _356
REMARK  140  A    between atoms: _360  and  ZN_772
REMARK  141  A    between atoms: _361  and  _363
REMARK  142  A    between atoms: _363  and  _364
REMARK  143  A    between atoms: _363  and  _366
REMARK  144  A    between atoms: _366  and  _367
REMARK  145  A    between atoms: _367  and  _368
REMARK  146  A    between atoms: _371  and  _373
REMARK  147  A    between atoms: _373  and  _374
REMARK  148  A    between atoms: _373  and  _376
REMARK  149  A    between atoms: _376  and  _377
REMARK  150  A    between atoms: _377  and  _378
REMARK  151  A    between atoms: _380  and  _382
REMARK  152  A    between atoms: _382  and  _383
REMARK  153  A    between atoms: _382  and  _385
REMARK  154  A    between atoms: _385  and  _386
REMARK  155  A    between atoms: _390  and  ZN_772
REMARK  156  A    between atoms: _391  and  _393
REMARK  157  A    between atoms: _393  and  _394
REMARK  158  A    between atoms: _393  and  _396
REMARK  159  A    between atoms: _396  and  _397
REMARK  160  A    between atoms: _400  and  _402
REMARK  161  A    between atoms: _402  and  _403
REMARK  162  A    between atoms: _402  and  _405
REMARK  163  A    between atoms: _405  and  _406
REMARK  164  A    between atoms: _411  and  _412
REMARK  165  A    between atoms: _414  and  _416
REMARK  166  A    between atoms: _416  and  _417
REMARK  167  A    between atoms: _416  and  _419
REMARK  168  A    between atoms: _419  and  _420
REMARK  169  A    between atoms: _426  and  _428
REMARK  170  A    between atoms: _428  and  _429
REMARK  171  A    between atoms: _428  and  _431
REMARK  172  A    between atoms: _431  and  _432
REMARK  173  A    between atoms: _437  and  _438
REMARK  174  A    between atoms: _440  and  _442
REMARK  175  A    between atoms: _442  and  _443
REMARK  176  A    between atoms: _442  and  _445
REMARK  177  A    between atoms: _445  and  _446
REMARK  178  A    between atoms: _446  and  _447
REMARK  179  A    between atoms: _447  and  _448
REMARK  180  A    between atoms: _457  and  _459
REMARK  181  A    between atoms: _459  and  _460
REMARK  182  A    between atoms: _459  and  _462
REMARK  183  A    between atoms: _462  and  _463
REMARK  184  A    between atoms: _463  and  _464
REMARK  185  A    between atoms: _467  and  _469
REMARK  186  A    between atoms: _469  and  _470
REMARK  187  A    between atoms: _472  and  _474
REMARK  188  A    between atoms: _474  and  _475
REMARK  189  A    between atoms: _474  and  _477
REMARK  190  A    between atoms: _477  and  _478
REMARK  191  A    between atoms: _484  and  _485
REMARK  192  A    between atoms: _490  and  _492
REMARK  193  A    between atoms: _492  and  _493
REMARK  194  A    between atoms: _495  and  _497
REMARK  195  A    between atoms: _497  and  _498
REMARK  196  A    between atoms: _497  and  _500
REMARK  197  A    between atoms: _500  and  _501
REMARK  198  A    between atoms: _507  and  _509
REMARK  199  A    between atoms: _509  and  _510
REMARK  200  A    between atoms: _509  and  _512
REMARK  201  A    between atoms: _512  and  _513
REMARK  202  A    between atoms: _518  and  _520
REMARK  203  A    between atoms: _520  and  _521
REMARK  204  A    between atoms: _520  and  _523
REMARK  205  A    between atoms: _523  and  _524
REMARK  206  A    between atoms: _524  and  _525
REMARK  207  A    between atoms: _525  and  _526
REMARK  208  A    between atoms: _526  and  ZN_772
REMARK  209  A    between atoms: _528  and  _530
REMARK  210  A    between atoms: _530  and  _531
REMARK  211  A    between atoms: _534  and  _536
REMARK  212  A    between atoms: _536  and  _537
REMARK  213  A    between atoms: _539  and  _541
REMARK  214  A    between atoms: _541  and  _542
REMARK  215  A    between atoms: _541  and  _544
REMARK  216  A    between atoms: _544  and  _545
REMARK  217  A    between atoms: _548  and  _550
REMARK  218  A    between atoms: _550  and  _551
REMARK  219  A    between atoms: _554  and  _556
REMARK  220  A    between atoms: _556  and  _557
REMARK  221  A    between atoms: _556  and  _559
REMARK  222  A    between atoms: _559  and  _560
REMARK  223  A    between atoms: _563  and  _565
REMARK  224  A    between atoms: _565  and  _566
REMARK  225  A    between atoms: _565  and  _568
REMARK  226  A    between atoms: _568  and  _569
REMARK  227  A    between atoms: _569  and  _570
REMARK  228  A    between atoms: _570  and  _571
REMARK  229  A    between atoms: _571  and  _572
REMARK  230  A    between atoms: _576  and  _578
REMARK  231  A    between atoms: _578  and  _579
REMARK  232  A    between atoms: _578  and  _581
REMARK  233  A    between atoms: _581  and  _582
REMARK  234  A    between atoms: _588  and  _590
REMARK  235  A    between atoms: _590  and  _591
REMARK  236  A    between atoms: _590  and  _593
REMARK  237  A    between atoms: _593  and  _594
REMARK  238  A    between atoms: _600  and  _602
REMARK  239  A    between atoms: _602  and  _603
REMARK  240  A    between atoms: _602  and  _605
REMARK  241  A    between atoms: _605  and  _606
REMARK  242  A    between atoms: _608  and  _610
REMARK  243  A    between atoms: _610  and  _611
REMARK  244  A    between atoms: _610  and  _613
REMARK  245  A    between atoms: _616  and  _618
REMARK  246  A    between atoms: _618  and  _619
REMARK  247  A    between atoms: _618  and  _621
REMARK  248  A    between atoms: _621  and  _622
REMARK  249  A    between atoms: _622  and  _623
REMARK  250  A    between atoms: _623  and  _624
REMARK  251  A    between atoms: _624  and  _625
REMARK  252  A    between atoms: _629  and  _631
REMARK  253  A    between atoms: _631  and  _632
REMARK  254  A    between atoms: _631  and  _634
REMARK  255  A    between atoms: _634  and  _635
REMARK  256  A    between atoms: _641  and  _643
REMARK  257  A    between atoms: _643  and  _644
REMARK  258  A    between atoms: _643  and  _646
REMARK  259  A    between atoms: _646  and  _647
REMARK  260  A    between atoms: _652  and  _654
REMARK  261  A    between atoms: _654  and  _655
REMARK  262  A    between atoms: _654  and  _657
REMARK  263  A    between atoms: _657  and  _658
REMARK  264  A    between atoms: _660  and  _662
REMARK  265  A    between atoms: _662  and  _663
REMARK  266  A    between atoms: _662  and  _665
REMARK  267  A    between atoms: _665  and  _666
REMARK  268  A    between atoms: _668  and  _670
REMARK  269  A    between atoms: _670  and  _671
REMARK  270  A    between atoms: _670  and  _673
REMARK  271  A    between atoms: _677  and  _678
REMARK  272  A    between atoms: _683  and  _685
REMARK  273  A    between atoms: _685  and  _686
REMARK  274  A    between atoms: _685  and  _688
REMARK  275  A    between atoms: _688  and  _689
REMARK  276  A    between atoms: _694  and  _695
REMARK  277  A    between atoms: _697  and  _699
REMARK  278  A    between atoms: _699  and  _700
REMARK  279  A    between atoms: _699  and  _702
REMARK  280  A    between atoms: _702  and  _703
REMARK  281  A    between atoms: _703  and  _704
REMARK  282  A    between atoms: _704  and  _705
REMARK  283  A    between atoms: _714  and  _716
REMARK  284  A    between atoms: _716  and  _717
REMARK  285  A    between atoms: _716  and  _719
REMARK  286  A    between atoms: _719  and  _720
REMARK  287  A    between atoms: _725  and  _726
REMARK  288  A    between atoms: _728  and  _730
REMARK  289  A    between atoms: _730  and  _731
REMARK  290  A    between atoms: _730  and  _733
REMARK  291  A    between atoms: _733  and  _734
REMARK  292  A    between atoms: _740  and  _742
REMARK  293  A    between atoms: _742  and  _743
REMARK  294  A    between atoms: _742  and  _745
REMARK  295  A    between atoms: _745  and  _746
REMARK  296  A    between atoms: _748  and  _750
REMARK  297  A    between atoms: _750  and  _751
REMARK  298  A    between atoms: _750  and  _753
REMARK  299  A    between atoms: _753  and  _754
REMARK  300  A    between atoms: _760  and  _762
REMARK  301  A    between atoms: _762  and  _763
REMARK  302  A    between atoms: _762  and  _765
REMARK  303  A    between atoms: _765  and  _766
REMARK  304  A    between atoms: _766  and  _767
REMARK                            x       y       z     vdW  Elec       q    Type
REMARK                         _______ _______ _______ _____ _____    ______ ____
ROOT
ATOM      1  O   HOH     1      14.455 -13.969 -29.886  0.00  0.00    +0.000 OA
ENDROOT
TORSDOF 0
REMARK  Name = ../refined-set-2016/2xy9/2xy9_pocket.pdb
REMARK  304 active torsions:
REMARK  status: ('A' for Active; 'I' for Inactive)
REMARK    1  A    between atoms: _1  and  _3
REMARK    2  A    between atoms: _3  and  _4
REMARK    3  A    between atoms: _3  and  _6
REMARK    4  A    between atoms: _6  and  _7
REMARK    5  A    between atoms: _12  and  _14
REMARK    6  A    between atoms: _14  and  _15
REMARK    7  A    between atoms: _14  and  _17
REMARK    8  A    between atoms: _17  and  _18
REMARK    9  A    between atoms: _23  and  _25
REMARK   10  A    between atoms: _25  and  _26
REMARK   11  A    between atoms: _25  and  _28
REMARK   12  A    between atoms: _28  and  _29
REMARK   13  A    between atoms: _29  and  _30
REMARK   14  A    between atoms: _33  and  _35
REMARK   15  A    between atoms: _35  and  _36
REMARK   16  A    between atoms: _35  and  _38
REMARK   17  A    between atoms: _38  and  _39
REMARK   18  A    between atoms: _44  and  _45
REMARK   19  A    between atoms: _47  and  _49
REMARK   20  A    between atoms: _49  and  _50
REMARK   21  A    between atoms: _49  and  _52
REMARK   22  A    between atoms: _52  and  _53
REMARK   23  A    between atoms: _56  and  _58
REMARK   24  A    between atoms: _58  and  _59
REMARK   25  A    between atoms: _61  and  _63
REMARK   26  A    between atoms: _63  and  _64
REMARK   27  A    between atoms: _63  and  _66
REMARK   28  A    between atoms: _66  and  _67
REMARK   29  A    between atoms: _72  and  _74
REMARK   30  A    between atoms: _74  and  _75
REMARK   31  A    between atoms: _74  and  _77
REMARK   32  A    between atoms: _77  and  _78
REMARK   33  A    between atoms: _88  and  _90
REMARK   34  A    between atoms: _90  and  _91
REMARK   35  A    between atoms: _90  and  _93
REMARK   36  A    between atoms: _93  and  _94
REMARK   37  A    between atoms: _94  and  _95
REMARK   38  A    between atoms: _100  and  _102
REMARK   39  A    between atoms: _102  and  _103
REMARK   40  A    between atoms: _102  and  _105
REMARK   41  A    between atoms: _105  and  _106
REMARK   42  A    between atoms: _109  and  _111
REMARK   43  A    between atoms: _111  and  _112
REMARK   44  A    between atoms: _111  and  _114
REMARK   45  A    between atoms: _114  and  _115
REMARK   46  A    between atoms: _125  and  _127
REMARK   47  A    between atoms: _127  and  _128
REMARK   48  A    between atoms: _127  and  _130
REMARK   49  A    between atoms: _130  and  _131
REMARK   50  A    between atoms: _133  and  _135
REMARK   51  A    between atoms: _135  and  _136
REMARK   52  A    between atoms: _135  and  _138
REMARK   53  A    between atoms: _138  and  _139
REMARK   54  A    between atoms: _144  and  _146
REMARK   55  A    between atoms: _146  and  _147
REMARK   56  A    between atoms: _146  and  _149
REMARK   57  A    between atoms: _152  and  _154
REMARK   58  A    between atoms: _154  and  _155
REMARK   59  A    between atoms: _154  and  _157
REMARK   60  A    between atoms: _159  and  _161
REMARK   61  A    between atoms: _161  and  _162
REMARK   62  A    between atoms: _161  and  _164
REMARK   63  A    between atoms: _164  and  _165
REMARK   64  A    between atoms: _170  and  _172
REMARK   65  A    between atoms: _172  and  _173
REMARK   66  A    between atoms: _176  and  _178
REMARK   67  A    between atoms: _178  and  _179
REMARK   68  A    between atoms: _178  and  _181
REMARK   69  A    between atoms: _181  and  _182
REMARK   70  A    between atoms: _184  and  _186
REMARK   71  A    between atoms: _186  and  _187
REMARK   72  A    between atoms: _190  and  _192
REMARK   73  A    between atoms: _192  and  _193
REMARK   74  A    between atoms: _192  and  _195
REMARK   75  A    between atoms: _195  and  _196
REMARK   76  A    between atoms: _206  and  _208
REMARK   77  A    between atoms: _208  and  _209
REMARK   78  A    between atoms: _208  and  _211
REMARK   79  A    between atoms: _211  and  _212
REMARK   80  A    between atoms: _215  and  _217
REMARK   81  A    between atoms: _217  and  _218
REMARK   82  A    between atoms: _217  and  _220
REMARK   83  A    between atoms: _220  and  _221
REMARK   84  A    between atoms: _226  and  _227
REMARK   85  A    between atoms: _229  and  _231
REMARK   86  A    between atoms: _231  and  _232
REMARK   87  A    between atoms: _231  and  _234
REMARK   88  A    between atoms: _234  and  _235
REMARK   89  A    between atoms: _235  and  _236
REMARK   90  A    between atoms: _236  and  _237
REMARK   91  A    between atoms: _246  and  _248
REMARK   92  A    between atoms: _248  and  _249
REMARK   93  A    between atoms: _248  and  _251
REMARK   94  A    between atoms: _251  and  _252
REMARK   95  A    between atoms: _255  and  _257
REMARK   96  A    between atoms: _257  and  _258
REMARK   97  A    between atoms: _257  and  _260
REMARK   98  A    between atoms: _260  and  _261
REMARK   99  A    between atoms: _261  and  _262
REMARK  100  A    between atoms: _262  and  _263
REMARK  101  A    between atoms: _263  and  _264
REMARK  102  A    between atoms: _268  and  _270
REMARK  103  A    between atoms: _270  and  _271
REMARK  104  A    between atoms: _270  and  _273
REMARK  105  A    between atoms: _273  and  _274
REMARK  106  A    between atoms: _274  and  _275
REMARK  107  A    between atoms: _280  and  _282
REMARK  108  A    between atoms: _282  and  _283
REMARK  109  A    between atoms: _282  and  _285
REMARK  110  A    between atoms: _285  and  _286
REMARK  111  A    between atoms: _289  and  _291
REMARK  112  A    between atoms: _291  and  _292
REMARK  113  A    between atoms: _291  and  _294
REMARK  114  A    between atoms: _294  and  _295
REMARK  115  A    between atoms: _295  and  _296
REMARK  116  A    between atoms: _299  and  _301
REMARK  117  A    between atoms: _301  and  _302
REMARK  118  A    between atoms: _301  and  _304
REMARK  119  A    between atoms: _304  and  _305
REMARK  120  A    between atoms: _308  and  _310
REMARK  121  A    between atoms: _310  and  _311
REMARK  122  A    between atoms: _310  and  _313
REMARK  123  A    between atoms: _313  and  _314
REMARK  124  A    between atoms: _317  and  _319
REMARK  125  A    between atoms: _319  and  _320
REMARK  126  A    between atoms: _319  and  _322
REMARK  127  A    between atoms: _325  and  _327
REMARK  128  A    between atoms: _327  and  _328
REMARK  129  A    between atoms: _327  and  _330
REMARK  130  A    between atoms: _333  and  _335
REMARK  131  A    between atoms: _335  and  _336
REMARK  132  A    between atoms: _339  and  _341
REMARK  133  A    between atoms: _341  and  _342
REMARK  134  A    between atoms: _341  and  _344
REMARK  135  A    between atoms: _344  and  _345
REMARK  136  A    between atoms: _350  and  _352
REMARK  137  A    between atoms: _352  and  _353
REMARK  138  A    between atoms: _352  and  _355
REMARK  139  A    between atoms: _355  and  _356
REMARK  140  A    between atoms: _360  and  ZN_772
REMARK  141  A    between atoms: _361  and  _363
REMARK  142  A    between atoms: _363  and  _364
REMARK  143  A    between atoms: _363  and  _366
REMARK  144  A    between atoms: _366  and  _367
REMARK  145  A    between atoms: _367  and  _368
REMARK  146  A    between atoms: _371  and  _373
REMARK  147  A    between atoms: _373  and  _374
REMARK  148  A    between atoms: _373  and  _376
REMARK  149  A    between atoms: _376  and  _377
REMARK  150  A    between atoms: _377  and  _378
REMARK  151  A    between atoms: _380  and  _382
REMARK  152  A    between atoms: _382  and  _383
REMARK  153  A    between atoms: _382  and  _385
REMARK  154  A    between atoms: _385  and  _386
REMARK  155  A    between atoms: _390  and  ZN_772
REMARK  156  A    between atoms: _391  and  _393
REMARK  157  A    between atoms: _393  and  _394
REMARK  158  A    between atoms: _393  and  _396
REMARK  159  A    between atoms: _396  and  _397
REMARK  160  A    between atoms: _400  and  _402
REMARK  161  A    between atoms: _402  and  _403
REMARK  162  A    between atoms: _402  and  _405
REMARK  163  A    between atoms: _405  and  _406
REMARK  164  A    between atoms: _411  and  _412
REMARK  165  A    between atoms: _414  and  _416
REMARK  166  A    between atoms: _416  and  _417
REMARK  167  A    between atoms: _416  and  _419
REMARK  168  A    between atoms: _419  and  _420
REMARK  169  A    between atoms: _426  and  _428
REMARK  170  A    between atoms: _428  and  _429
REMARK  171  A    between atoms: _428  and  _431
REMARK  172  A    between atoms: _431  and  _432
REMARK  173  A    between atoms: _437  and  _438
REMARK  174  A    between atoms: _440  and  _442
REMARK  175  A    between atoms: _442  and  _443
REMARK  176  A    between atoms: _442  and  _445
REMARK  177  A    between atoms: _445  and  _446
REMARK  178  A    between atoms: _446  and  _447
REMARK  179  A    between atoms: _447  and  _448
REMARK  180  A    between atoms: _457  and  _459
REMARK  181  A    between atoms: _459  and  _460
REMARK  182  A    between atoms: _459  and  _462
REMARK  183  A    between atoms: _462  and  _463
REMARK  184  A    between atoms: _463  and  _464
REMARK  185  A    between atoms: _467  and  _469
REMARK  186  A    between atoms: _469  and  _470
REMARK  187  A    between atoms: _472  and  _474
REMARK  188  A    between atoms: _474  and  _475
REMARK  189  A    between atoms: _474  and  _477
REMARK  190  A    between atoms: _477  and  _478
REMARK  191  A    between atoms: _484  and  _485
REMARK  192  A    between atoms: _490  and  _492
REMARK  193  A    between atoms: _492  and  _493
REMARK  194  A    between atoms: _495  and  _497
REMARK  195  A    between atoms: _497  and  _498
REMARK  196  A    between atoms: _497  and  _500
REMARK  197  A    between atoms: _500  and  _501
REMARK  198  A    between atoms: _507  and  _509
REMARK  199  A    between atoms: _509  and  _510
REMARK  200  A    between atoms: _509  and  _512
REMARK  201  A    between atoms: _512  and  _513
REMARK  202  A    between atoms: _518  and  _520
REMARK  203  A    between atoms: _520  and  _521
REMARK  204  A    between atoms: _520  and  _523
REMARK  205  A    between atoms: _523  and  _524
REMARK  206  A    between atoms: _524  and  _525
REMARK  207  A    between atoms: _525  and  _526
REMARK  208  A    between atoms: _526  and  ZN_772
REMARK  209  A    between atoms: _528  and  _530
REMARK  210  A    between atoms: _530  and  _531
REMARK  211  A    between atoms: _534  and  _536
REMARK  212  A    between atoms: _536  and  _537
REMARK  213  A    between atoms: _539  and  _541
REMARK  214  A    between atoms: _541  and  _542
REMARK  215  A    between atoms: _541  and  _544
REMARK  216  A    between atoms: _544  and  _545
REMARK  217  A    between atoms: _548  and  _550
REMARK  218  A    between atoms: _550  and  _551
REMARK  219  A    between atoms: _554  and  _556
REMARK  220  A    between atoms: _556  and  _557
REMARK  221  A    between atoms: _556  and  _559
REMARK  222  A    between atoms: _559  and  _560
REMARK  223  A    between atoms: _563  and  _565
REMARK  224  A    between atoms: _565  and  _566
REMARK  225  A    between atoms: _565  and  _568
REMARK  226  A    between atoms: _568  and  _569
REMARK  227  A    between atoms: _569  and  _570
REMARK  228  A    between atoms: _570  and  _571
REMARK  229  A    between atoms: _571  and  _572
REMARK  230  A    between atoms: _576  and  _578
REMARK  231  A    between atoms: _578  and  _579
REMARK  232  A    between atoms: _578  and  _581
REMARK  233  A    between atoms: _581  and  _582
REMARK  234  A    between atoms: _588  and  _590
REMARK  235  A    between atoms: _590  and  _591
REMARK  236  A    between atoms: _590  and  _593
REMARK  237  A    between atoms: _593  and  _594
REMARK  238  A    between atoms: _600  and  _602
REMARK  239  A    between atoms: _602  and  _603
REMARK  240  A    between atoms: _602  and  _605
REMARK  241  A    between atoms: _605  and  _606
REMARK  242  A    between atoms: _608  and  _610
REMARK  243  A    between atoms: _610  and  _611
REMARK  244  A    between atoms: _610  and  _613
REMARK  245  A    between atoms: _616  and  _618
REMARK  246  A    between atoms: _618  and  _619
REMARK  247  A    between atoms: _618  and  _621
REMARK  248  A    between atoms: _621  and  _622
REMARK  249  A    between atoms: _622  and  _623
REMARK  250  A    between atoms: _623  and  _624
REMARK  251  A    between atoms: _624  and  _625
REMARK  252  A    between atoms: _629  and  _631
REMARK  253  A    between atoms: _631  and  _632
REMARK  254  A    between atoms: _631  and  _634
REMARK  255  A    between atoms: _634  and  _635
REMARK  256  A    between atoms: _641  and  _643
REMARK  257  A    between atoms: _643  and  _644
REMARK  258  A    between atoms: _643  and  _646
REMARK  259  A    between atoms: _646  and  _647
REMARK  260  A    between atoms: _652  and  _654
REMARK  261  A    between atoms: _654  and  _655
REMARK  262  A    between atoms: _654  and  _657
REMARK  263  A    between atoms: _657  and  _658
REMARK  264  A    between atoms: _660  and  _662
REMARK  265  A    between atoms: _662  and  _663
REMARK  266  A    between atoms: _662  and  _665
REMARK  267  A    between atoms: _665  and  _666
REMARK  268  A    between atoms: _668  and  _670
REMARK  269  A    between atoms: _670  and  _671
REMARK  270  A    between atoms: _670  and  _673
REMARK  271  A    between atoms: _677  and  _678
REMARK  272  A    between atoms: _683  and  _685
REMARK  273  A    between atoms: _685  and  _686
REMARK  274  A    between atoms: _685  and  _688
REMARK  275  A    between atoms: _688  and  _689
REMARK  276  A    between atoms: _694  and  _695
REMARK  277  A    between atoms: _697  and  _699
REMARK  278  A    between atoms: _699  and  _700
REMARK  279  A    between atoms: _699  and  _702
REMARK  280  A    between atoms: _702  and  _703
REMARK  281  A    between atoms: _703  and  _704
REMARK  282  A    between atoms: _704  and  _705
REMARK  283  A    between atoms: _714  and  _716
REMARK  284  A    between atoms: _716  and  _717
REMARK  285  A    between atoms: _716  and  _719
REMARK  286  A    between atoms: _719  and  _720
REMARK  287  A    between atoms: _725  and  _726
REMARK  288  A    between atoms: _728  and  _730
REMARK  289  A    between atoms: _730  and  _731
REMARK  290  A    between atoms: _730  and  _733
REMARK  291  A    between atoms: _733  and  _734
REMARK  292  A    between atoms: _740  and  _742
REMARK  293  A    between atoms: _742  and  _743
REMARK  294  A    between atoms: _742  and  _745
REMARK  295  A    between atoms: _745  and  _746
REMARK  296  A    between atoms: _748  and  _750
REMARK  297  A    between atoms: _750  and  _751
REMARK  298  A    between atoms: _750  and  _753
REMARK  299  A    between atoms: _753  and  _754
REMARK  300  A    between atoms: _760  and  _762
REMARK  301  A    between atoms: _762  and  _763
REMARK  302  A    between atoms: _762  and  _765
REMARK  303  A    between atoms: _765  and  _766
REMARK  304  A    between atoms: _766  and  _767
REMARK                            x       y       z     vdW  Elec       q    Type
REMARK                         _______ _______ _______ _____ _____    ______ ____
ROOT
ATOM      1  O   HOH     1      19.322   5.531 -12.701  0.00  0.00    +0.000 OA
ENDROOT
TORSDOF 0
REMARK  Name = ../refined-set-2016/2xy9/2xy9_pocket.pdb
REMARK  304 active torsions:
REMARK  status: ('A' for Active; 'I' for Inactive)
REMARK    1  A    between atoms: _1  and  _3
REMARK    2  A    between atoms: _3  and  _4
REMARK    3  A    between atoms: _3  and  _6
REMARK    4  A    between atoms: _6  and  _7
REMARK    5  A    between atoms: _12  and  _14
REMARK    6  A    between atoms: _14  and  _15
REMARK    7  A    between atoms: _14  and  _17
REMARK    8  A    between atoms: _17  and  _18
REMARK    9  A    between atoms: _23  and  _25
REMARK   10  A    between atoms: _25  and  _26
REMARK   11  A    between atoms: _25  and  _28
REMARK   12  A    between atoms: _28  and  _29
REMARK   13  A    between atoms: _29  and  _30
REMARK   14  A    between atoms: _33  and  _35
REMARK   15  A    between atoms: _35  and  _36
REMARK   16  A    between atoms: _35  and  _38
REMARK   17  A    between atoms: _38  and  _39
REMARK   18  A    between atoms: _44  and  _45
REMARK   19  A    between atoms: _47  and  _49
REMARK   20  A    between atoms: _49  and  _50
REMARK   21  A    between atoms: _49  and  _52
REMARK   22  A    between atoms: _52  and  _53
REMARK   23  A    between atoms: _56  and  _58
REMARK   24  A    between atoms: _58  and  _59
REMARK   25  A    between atoms: _61  and  _63
REMARK   26  A    between atoms: _63  and  _64
REMARK   27  A    between atoms: _63  and  _66
REMARK   28  A    between atoms: _66  and  _67
REMARK   29  A    between atoms: _72  and  _74
REMARK   30  A    between atoms: _74  and  _75
REMARK   31  A    between atoms: _74  and  _77
REMARK   32  A    between atoms: _77  and  _78
REMARK   33  A    between atoms: _88  and  _90
REMARK   34  A    between atoms: _90  and  _91
REMARK   35  A    between atoms: _90  and  _93
REMARK   36  A    between atoms: _93  and  _94
REMARK   37  A    between atoms: _94  and  _95
REMARK   38  A    between atoms: _100  and  _102
REMARK   39  A    between atoms: _102  and  _103
REMARK   40  A    between atoms: _102  and  _105
REMARK   41  A    between atoms: _105  and  _106
REMARK   42  A    between atoms: _109  and  _111
REMARK   43  A    between atoms: _111  and  _112
REMARK   44  A    between atoms: _111  and  _114
REMARK   45  A    between atoms: _114  and  _115
REMARK   46  A    between atoms: _125  and  _127
REMARK   47  A    between atoms: _127  and  _128
REMARK   48  A    between atoms: _127  and  _130
REMARK   49  A    between atoms: _130  and  _131
REMARK   50  A    between atoms: _133  and  _135
REMARK   51  A    between atoms: _135  and  _136
REMARK   52  A    between atoms: _135  and  _138
REMARK   53  A    between atoms: _138  and  _139
REMARK   54  A    between atoms: _144  and  _146
REMARK   55  A    between atoms: _146  and  _147
REMARK   56  A    between atoms: _146  and  _149
REMARK   57  A    between atoms: _152  and  _154
REMARK   58  A    between atoms: _154  and  _155
REMARK   59  A    between atoms: _154  and  _157
REMARK   60  A    between atoms: _159  and  _161
REMARK   61  A    between atoms: _161  and  _162
REMARK   62  A    between atoms: _161  and  _164
REMARK   63  A    between atoms: _164  and  _165
REMARK   64  A    between atoms: _170  and  _172
REMARK   65  A    between atoms: _172  and  _173
REMARK   66  A    between atoms: _176  and  _178
REMARK   67  A    between atoms: _178  and  _179
REMARK   68  A    between atoms: _178  and  _181
REMARK   69  A    between atoms: _181  and  _182
REMARK   70  A    between atoms: _184  and  _186
REMARK   71  A    between atoms: _186  and  _187
REMARK   72  A    between atoms: _190  and  _192
REMARK   73  A    between atoms: _192  and  _193
REMARK   74  A    between atoms: _192  and  _195
REMARK   75  A    between atoms: _195  and  _196
REMARK   76  A    between atoms: _206  and  _208
REMARK   77  A    between atoms: _208  and  _209
REMARK   78  A    between atoms: _208  and  _211
REMARK   79  A    between atoms: _211  and  _212
REMARK   80  A    between atoms: _215  and  _217
REMARK   81  A    between atoms: _217  and  _218
REMARK   82  A    between atoms: _217  and  _220
REMARK   83  A    between atoms: _220  and  _221
REMARK   84  A    between atoms: _226  and  _227
REMARK   85  A    between atoms: _229  and  _231
REMARK   86  A    between atoms: _231  and  _232
REMARK   87  A    between atoms: _231  and  _234
REMARK   88  A    between atoms: _234  and  _235
REMARK   89  A    between atoms: _235  and  _236
REMARK   90  A    between atoms: _236  and  _237
REMARK   91  A    between atoms: _246  and  _248
REMARK   92  A    between atoms: _248  and  _249
REMARK   93  A    between atoms: _248  and  _251
REMARK   94  A    between atoms: _251  and  _252
REMARK   95  A    between atoms: _255  and  _257
REMARK   96  A    between atoms: _257  and  _258
REMARK   97  A    between atoms: _257  and  _260
REMARK   98  A    between atoms: _260  and  _261
REMARK   99  A    between atoms: _261  and  _262
REMARK  100  A    between atoms: _262  and  _263
REMARK  101  A    between atoms: _263  and  _264
REMARK  102  A    between atoms: _268  and  _270
REMARK  103  A    between atoms: _270  and  _271
REMARK  104  A    between atoms: _270  and  _273
REMARK  105  A    between atoms: _273  and  _274
REMARK  106  A    between atoms: _274  and  _275
REMARK  107  A    between atoms: _280  and  _282
REMARK  108  A    between atoms: _282  and  _283
REMARK  109  A    between atoms: _282  and  _285
REMARK  110  A    between atoms: _285  and  _286
REMARK  111  A    between atoms: _289  and  _291
REMARK  112  A    between atoms: _291  and  _292
REMARK  113  A    between atoms: _291  and  _294
REMARK  114  A    between atoms: _294  and  _295
REMARK  115  A    between atoms: _295  and  _296
REMARK  116  A    between atoms: _299  and  _301
REMARK  117  A    between atoms: _301  and  _302
REMARK  118  A    between atoms: _301  and  _304
REMARK  119  A    between atoms: _304  and  _305
REMARK  120  A    between atoms: _308  and  _310
REMARK  121  A    between atoms: _310  and  _311
REMARK  122  A    between atoms: _310  and  _313
REMARK  123  A    between atoms: _313  and  _314
REMARK  124  A    between atoms: _317  and  _319
REMARK  125  A    between atoms: _319  and  _320
REMARK  126  A    between atoms: _319  and  _322
REMARK  127  A    between atoms: _325  and  _327
REMARK  128  A    between atoms: _327  and  _328
REMARK  129  A    between atoms: _327  and  _330
REMARK  130  A    between atoms: _333  and  _335
REMARK  131  A    between atoms: _335  and  _336
REMARK  132  A    between atoms: _339  and  _341
REMARK  133  A    between atoms: _341  and  _342
REMARK  134  A    between atoms: _341  and  _344
REMARK  135  A    between atoms: _344  and  _345
REMARK  136  A    between atoms: _350  and  _352
REMARK  137  A    between atoms: _352  and  _353
REMARK  138  A    between atoms: _352  and  _355
REMARK  139  A    between atoms: _355  and  _356
REMARK  140  A    between atoms: _360  and  ZN_772
REMARK  141  A    between atoms: _361  and  _363
REMARK  142  A    between atoms: _363  and  _364
REMARK  143  A    between atoms: _363  and  _366
REMARK  144  A    between atoms: _366  and  _367
REMARK  145  A    between atoms: _367  and  _368
REMARK  146  A    between atoms: _371  and  _373
REMARK  147  A    between atoms: _373  and  _374
REMARK  148  A    between atoms: _373  and  _376
REMARK  149  A    between atoms: _376  and  _377
REMARK  150  A    between atoms: _377  and  _378
REMARK  151  A    between atoms: _380  and  _382
REMARK  152  A    between atoms: _382  and  _383
REMARK  153  A    between atoms: _382  and  _385
REMARK  154  A    between atoms: _385  and  _386
REMARK  155  A    between atoms: _390  and  ZN_772
REMARK  156  A    between atoms: _391  and  _393
REMARK  157  A    between atoms: _393  and  _394
REMARK  158  A    between atoms: _393  and  _396
REMARK  159  A    between atoms: _396  and  _397
REMARK  160  A    between atoms: _400  and  _402
REMARK  161  A    between atoms: _402  and  _403
REMARK  162  A    between atoms: _402  and  _405
REMARK  163  A    between atoms: _405  and  _406
REMARK  164  A    between atoms: _411  and  _412
REMARK  165  A    between atoms: _414  and  _416
REMARK  166  A    between atoms: _416  and  _417
REMARK  167  A    between atoms: _416  and  _419
REMARK  168  A    between atoms: _419  and  _420
REMARK  169  A    between atoms: _426  and  _428
REMARK  170  A    between atoms: _428  and  _429
REMARK  171  A    between atoms: _428  and  _431
REMARK  172  A    between atoms: _431  and  _432
REMARK  173  A    between atoms: _437  and  _438
REMARK  174  A    between atoms: _440  and  _442
REMARK  175  A    between atoms: _442  and  _443
REMARK  176  A    between atoms: _442  and  _445
REMARK  177  A    between atoms: _445  and  _446
REMARK  178  A    between atoms: _446  and  _447
REMARK  179  A    between atoms: _447  and  _448
REMARK  180  A    between atoms: _457  and  _459
REMARK  181  A    between atoms: _459  and  _460
REMARK  182  A    between atoms: _459  and  _462
REMARK  183  A    between atoms: _462  and  _463
REMARK  184  A    between atoms: _463  and  _464
REMARK  185  A    between atoms: _467  and  _469
REMARK  186  A    between atoms: _469  and  _470
REMARK  187  A    between atoms: _472  and  _474
REMARK  188  A    between atoms: _474  and  _475
REMARK  189  A    between atoms: _474  and  _477
REMARK  190  A    between atoms: _477  and  _478
REMARK  191  A    between atoms: _484  and  _485
REMARK  192  A    between atoms: _490  and  _492
REMARK  193  A    between atoms: _492  and  _493
REMARK  194  A    between atoms: _495  and  _497
REMARK  195  A    between atoms: _497  and  _498
REMARK  196  A    between atoms: _497  and  _500
REMARK  197  A    between atoms: _500  and  _501
REMARK  198  A    between atoms: _507  and  _509
REMARK  199  A    between atoms: _509  and  _510
REMARK  200  A    between atoms: _509  and  _512
REMARK  201  A    between atoms: _512  and  _513
REMARK  202  A    between atoms: _518  and  _520
REMARK  203  A    between atoms: _520  and  _521
REMARK  204  A    between atoms: _520  and  _523
REMARK  205  A    between atoms: _523  and  _524
REMARK  206  A    between atoms: _524  and  _525
REMARK  207  A    between atoms: _525  and  _526
REMARK  208  A    between atoms: _526  and  ZN_772
REMARK  209  A    between atoms: _528  and  _530
REMARK  210  A    between atoms: _530  and  _531
REMARK  211  A    between atoms: _534  and  _536
REMARK  212  A    between atoms: _536  and  _537
REMARK  213  A    between atoms: _539  and  _541
REMARK  214  A    between atoms: _541  and  _542
REMARK  215  A    between atoms: _541  and  _544
REMARK  216  A    between atoms: _544  and  _545
REMARK  217  A    between atoms: _548  and  _550
REMARK  218  A    between atoms: _550  and  _551
REMARK  219  A    between atoms: _554  and  _556
REMARK  220  A    between atoms: _556  and  _557
REMARK  221  A    between atoms: _556  and  _559
REMARK  222  A    between atoms: _559  and  _560
REMARK  223  A    between atoms: _563  and  _565
REMARK  224  A    between atoms: _565  and  _566
REMARK  225  A    between atoms: _565  and  _568
REMARK  226  A    between atoms: _568  and  _569
REMARK  227  A    between atoms: _569  and  _570
REMARK  228  A    between atoms: _570  and  _571
REMARK  229  A    between atoms: _571  and  _572
REMARK  230  A    between atoms: _576  and  _578
REMARK  231  A    between atoms: _578  and  _579
REMARK  232  A    between atoms: _578  and  _581
REMARK  233  A    between atoms: _581  and  _582
REMARK  234  A    between atoms: _588  and  _590
REMARK  235  A    between atoms: _590  and  _591
REMARK  236  A    between atoms: _590  and  _593
REMARK  237  A    between atoms: _593  and  _594
REMARK  238  A    between atoms: _600  and  _602
REMARK  239  A    between atoms: _602  and  _603
REMARK  240  A    between atoms: _602  and  _605
REMARK  241  A    between atoms: _605  and  _606
REMARK  242  A    between atoms: _608  and  _610
REMARK  243  A    between atoms: _610  and  _611
REMARK  244  A    between atoms: _610  and  _613
REMARK  245  A    between atoms: _616  and  _618
REMARK  246  A    between atoms: _618  and  _619
REMARK  247  A    between atoms: _618  and  _621
REMARK  248  A    between atoms: _621  and  _622
REMARK  249  A    between atoms: _622  and  _623
REMARK  250  A    between atoms: _623  and  _624
REMARK  251  A    between atoms: _624  and  _625
REMARK  252  A    between atoms: _629  and  _631
REMARK  253  A    between atoms: _631  and  _632
REMARK  254  A    between atoms: _631  and  _634
REMARK  255  A    between atoms: _634  and  _635
REMARK  256  A    between atoms: _641  and  _643
REMARK  257  A    between atoms: _643  and  _644
REMARK  258  A    between atoms: _643  and  _646
REMARK  259  A    between atoms: _646  and  _647
REMARK  260  A    between atoms: _652  and  _654
REMARK  261  A    between atoms: _654  and  _655
REMARK  262  A    between atoms: _654  and  _657
REMARK  263  A    between atoms: _657  and  _658
REMARK  264  A    between atoms: _660  and  _662
REMARK  265  A    between atoms: _662  and  _663
REMARK  266  A    between atoms: _662  and  _665
REMARK  267  A    between atoms: _665  and  _666
REMARK  268  A    between atoms: _668  and  _670
REMARK  269  A    between atoms: _670  and  _671
REMARK  270  A    between atoms: _670  and  _673
REMARK  271  A    between atoms: _677  and  _678
REMARK  272  A    between atoms: _683  and  _685
REMARK  273  A    between atoms: _685  and  _686
REMARK  274  A    between atoms: _685  and  _688
REMARK  275  A    between atoms: _688  and  _689
REMARK  276  A    between atoms: _694  and  _695
REMARK  277  A    between atoms: _697  and  _699
REMARK  278  A    between atoms: _699  and  _700
REMARK  279  A    between atoms: _699  and  _702
REMARK  280  A    between atoms: _702  and  _703
REMARK  281  A    between atoms: _703  and  _704
REMARK  282  A    between atoms: _704  and  _705
REMARK  283  A    between atoms: _714  and  _716
REMARK  284  A    between atoms: _716  and  _717
REMARK  285  A    between atoms: _716  and  _719
REMARK  286  A    between atoms: _719  and  _720
REMARK  287  A    between atoms: _725  and  _726
REMARK  288  A    between atoms: _728  and  _730
REMARK  289  A    between atoms: _730  and  _731
REMARK  290  A    between atoms: _730  and  _733
REMARK  291  A    between atoms: _733  and  _734
REMARK  292  A    between atoms: _740  and  _742
REMARK  293  A    between atoms: _742  and  _743
REMARK  294  A    between atoms: _742  and  _745
REMARK  295  A    between atoms: _745  and  _746
REMARK  296  A    between atoms: _748  and  _750
REMARK  297  A    between atoms: _750  and  _751
REMARK  298  A    between atoms: _750  and  _753
REMARK  299  A    between atoms: _753  and  _754
REMARK  300  A    between atoms: _760  and  _762
REMARK  301  A    between atoms: _762  and  _763
REMARK  302  A    between atoms: _762  and  _765
REMARK  303  A    between atoms: _765  and  _766
REMARK  304  A    between atoms: _766  and  _767
REMARK                            x       y       z     vdW  Elec       q    Type
REMARK                         _______ _______ _______ _____ _____    ______ ____
ROOT
ATOM      1  O   HOH     1      15.320  10.034 -10.775  0.00  0.00    +0.000 OA
ENDROOT
TORSDOF 0
REMARK  Name = ../refined-set-2016/2xy9/2xy9_pocket.pdb
REMARK  304 active torsions:
REMARK  status: ('A' for Active; 'I' for Inactive)
REMARK    1  A    between atoms: _1  and  _3
REMARK    2  A    between atoms: _3  and  _4
REMARK    3  A    between atoms: _3  and  _6
REMARK    4  A    between atoms: _6  and  _7
REMARK    5  A    between atoms: _12  and  _14
REMARK    6  A    between atoms: _14  and  _15
REMARK    7  A    between atoms: _14  and  _17
REMARK    8  A    between atoms: _17  and  _18
REMARK    9  A    between atoms: _23  and  _25
REMARK   10  A    between atoms: _25  and  _26
REMARK   11  A    between atoms: _25  and  _28
REMARK   12  A    between atoms: _28  and  _29
REMARK   13  A    between atoms: _29  and  _30
REMARK   14  A    between atoms: _33  and  _35
REMARK   15  A    between atoms: _35  and  _36
REMARK   16  A    between atoms: _35  and  _38
REMARK   17  A    between atoms: _38  and  _39
REMARK   18  A    between atoms: _44  and  _45
REMARK   19  A    between atoms: _47  and  _49
REMARK   20  A    between atoms: _49  and  _50
REMARK   21  A    between atoms: _49  and  _52
REMARK   22  A    between atoms: _52  and  _53
REMARK   23  A    between atoms: _56  and  _58
REMARK   24  A    between atoms: _58  and  _59
REMARK   25  A    between atoms: _61  and  _63
REMARK   26  A    between atoms: _63  and  _64
REMARK   27  A    between atoms: _63  and  _66
REMARK   28  A    between atoms: _66  and  _67
REMARK   29  A    between atoms: _72  and  _74
REMARK   30  A    between atoms: _74  and  _75
REMARK   31  A    between atoms: _74  and  _77
REMARK   32  A    between atoms: _77  and  _78
REMARK   33  A    between atoms: _88  and  _90
REMARK   34  A    between atoms: _90  and  _91
REMARK   35  A    between atoms: _90  and  _93
REMARK   36  A    between atoms: _93  and  _94
REMARK   37  A    between atoms: _94  and  _95
REMARK   38  A    between atoms: _100  and  _102
REMARK   39  A    between atoms: _102  and  _103
REMARK   40  A    between atoms: _102  and  _105
REMARK   41  A    between atoms: _105  and  _106
REMARK   42  A    between atoms: _109  and  _111
REMARK   43  A    between atoms: _111  and  _112
REMARK   44  A    between atoms: _111  and  _114
REMARK   45  A    between atoms: _114  and  _115
REMARK   46  A    between atoms: _125  and  _127
REMARK   47  A    between atoms: _127  and  _128
REMARK   48  A    between atoms: _127  and  _130
REMARK   49  A    between atoms: _130  and  _131
REMARK   50  A    between atoms: _133  and  _135
REMARK   51  A    between atoms: _135  and  _136
REMARK   52  A    between atoms: _135  and  _138
REMARK   53  A    between atoms: _138  and  _139
REMARK   54  A    between atoms: _144  and  _146
REMARK   55  A    between atoms: _146  and  _147
REMARK   56  A    between atoms: _146  and  _149
REMARK   57  A    between atoms: _152  and  _154
REMARK   58  A    between atoms: _154  and  _155
REMARK   59  A    between atoms: _154  and  _157
REMARK   60  A    between atoms: _159  and  _161
REMARK   61  A    between atoms: _161  and  _162
REMARK   62  A    between atoms: _161  and  _164
REMARK   63  A    between atoms: _164  and  _165
REMARK   64  A    between atoms: _170  and  _172
REMARK   65  A    between atoms: _172  and  _173
REMARK   66  A    between atoms: _176  and  _178
REMARK   67  A    between atoms: _178  and  _179
REMARK   68  A    between atoms: _178  and  _181
REMARK   69  A    between atoms: _181  and  _182
REMARK   70  A    between atoms: _184  and  _186
REMARK   71  A    between atoms: _186  and  _187
REMARK   72  A    between atoms: _190  and  _192
REMARK   73  A    between atoms: _192  and  _193
REMARK   74  A    between atoms: _192  and  _195
REMARK   75  A    between atoms: _195  and  _196
REMARK   76  A    between atoms: _206  and  _208
REMARK   77  A    between atoms: _208  and  _209
REMARK   78  A    between atoms: _208  and  _211
REMARK   79  A    between atoms: _211  and  _212
REMARK   80  A    between atoms: _215  and  _217
REMARK   81  A    between atoms: _217  and  _218
REMARK   82  A    between atoms: _217  and  _220
REMARK   83  A    between atoms: _220  and  _221
REMARK   84  A    between atoms: _226  and  _227
REMARK   85  A    between atoms: _229  and  _231
REMARK   86  A    between atoms: _231  and  _232
REMARK   87  A    between atoms: _231  and  _234
REMARK   88  A    between atoms: _234  and  _235
REMARK   89  A    between atoms: _235  and  _236
REMARK   90  A    between atoms: _236  and  _237
REMARK   91  A    between atoms: _246  and  _248
REMARK   92  A    between atoms: _248  and  _249
REMARK   93  A    between atoms: _248  and  _251
REMARK   94  A    between atoms: _251  and  _252
REMARK   95  A    between atoms: _255  and  _257
REMARK   96  A    between atoms: _257  and  _258
REMARK   97  A    between atoms: _257  and  _260
REMARK   98  A    between atoms: _260  and  _261
REMARK   99  A    between atoms: _261  and  _262
REMARK  100  A    between atoms: _262  and  _263
REMARK  101  A    between atoms: _263  and  _264
REMARK  102  A    between atoms: _268  and  _270
REMARK  103  A    between atoms: _270  and  _271
REMARK  104  A    between atoms: _270  and  _273
REMARK  105  A    between atoms: _273  and  _274
REMARK  106  A    between atoms: _274  and  _275
REMARK  107  A    between atoms: _280  and  _282
REMARK  108  A    between atoms: _282  and  _283
REMARK  109  A    between atoms: _282  and  _285
REMARK  110  A    between atoms: _285  and  _286
REMARK  111  A    between atoms: _289  and  _291
REMARK  112  A    between atoms: _291  and  _292
REMARK  113  A    between atoms: _291  and  _294
REMARK  114  A    between atoms: _294  and  _295
REMARK  115  A    between atoms: _295  and  _296
REMARK  116  A    between atoms: _299  and  _301
REMARK  117  A    between atoms: _301  and  _302
REMARK  118  A    between atoms: _301  and  _304
REMARK  119  A    between atoms: _304  and  _305
REMARK  120  A    between atoms: _308  and  _310
REMARK  121  A    between atoms: _310  and  _311
REMARK  122  A    between atoms: _310  and  _313
REMARK  123  A    between atoms: _313  and  _314
REMARK  124  A    between atoms: _317  and  _319
REMARK  125  A    between atoms: _319  and  _320
REMARK  126  A    between atoms: _319  and  _322
REMARK  127  A    between atoms: _325  and  _327
REMARK  128  A    between atoms: _327  and  _328
REMARK  129  A    between atoms: _327  and  _330
REMARK  130  A    between atoms: _333  and  _335
REMARK  131  A    between atoms: _335  and  _336
REMARK  132  A    between atoms: _339  and  _341
REMARK  133  A    between atoms: _341  and  _342
REMARK  134  A    between atoms: _341  and  _344
REMARK  135  A    between atoms: _344  and  _345
REMARK  136  A    between atoms: _350  and  _352
REMARK  137  A    between atoms: _352  and  _353
REMARK  138  A    between atoms: _352  and  _355
REMARK  139  A    between atoms: _355  and  _356
REMARK  140  A    between atoms: _360  and  ZN_772
REMARK  141  A    between atoms: _361  and  _363
REMARK  142  A    between atoms: _363  and  _364
REMARK  143  A    between atoms: _363  and  _366
REMARK  144  A    between atoms: _366  and  _367
REMARK  145  A    between atoms: _367  and  _368
REMARK  146  A    between atoms: _371  and  _373
REMARK  147  A    between atoms: _373  and  _374
REMARK  148  A    between atoms: _373  and  _376
REMARK  149  A    between atoms: _376  and  _377
REMARK  150  A    between atoms: _377  and  _378
REMARK  151  A    between atoms: _380  and  _382
REMARK  152  A    between atoms: _382  and  _383
REMARK  153  A    between atoms: _382  and  _385
REMARK  154  A    between atoms: _385  and  _386
REMARK  155  A    between atoms: _390  and  ZN_772
REMARK  156  A    between atoms: _391  and  _393
REMARK  157  A    between atoms: _393  and  _394
REMARK  158  A    between atoms: _393  and  _396
REMARK  159  A    between atoms: _396  and  _397
REMARK  160  A    between atoms: _400  and  _402
REMARK  161  A    between atoms: _402  and  _403
REMARK  162  A    between atoms: _402  and  _405
REMARK  163  A    between atoms: _405  and  _406
REMARK  164  A    between atoms: _411  and  _412
REMARK  165  A    between atoms: _414  and  _416
REMARK  166  A    between atoms: _416  and  _417
REMARK  167  A    between atoms: _416  and  _419
REMARK  168  A    between atoms: _419  and  _420
REMARK  169  A    between atoms: _426  and  _428
REMARK  170  A    between atoms: _428  and  _429
REMARK  171  A    between atoms: _428  and  _431
REMARK  172  A    between atoms: _431  and  _432
REMARK  173  A    between atoms: _437  and  _438
REMARK  174  A    between atoms: _440  and  _442
REMARK  175  A    between atoms: _442  and  _443
REMARK  176  A    between atoms: _442  and  _445
REMARK  177  A    between atoms: _445  and  _446
REMARK  178  A    between atoms: _446  and  _447
REMARK  179  A    between atoms: _447  and  _448
REMARK  180  A    between atoms: _457  and  _459
REMARK  181  A    between atoms: _459  and  _460
REMARK  182  A    between atoms: _459  and  _462
REMARK  183  A    between atoms: _462  and  _463
REMARK  184  A    between atoms: _463  and  _464
REMARK  185  A    between atoms: _467  and  _469
REMARK  186  A    between atoms: _469  and  _470
REMARK  187  A    between atoms: _472  and  _474
REMARK  188  A    between atoms: _474  and  _475
REMARK  189  A    between atoms: _474  and  _477
REMARK  190  A    between atoms: _477  and  _478
REMARK  191  A    between atoms: _484  and  _485
REMARK  192  A    between atoms: _490  and  _492
REMARK  193  A    between atoms: _492  and  _493
REMARK  194  A    between atoms: _495  and  _497
REMARK  195  A    between atoms: _497  and  _498
REMARK  196  A    between atoms: _497  and  _500
REMARK  197  A    between atoms: _500  and  _501
REMARK  198  A    between atoms: _507  and  _509
REMARK  199  A    between atoms: _509  and  _510
REMARK  200  A    between atoms: _509  and  _512
REMARK  201  A    between atoms: _512  and  _513
REMARK  202  A    between atoms: _518  and  _520
REMARK  203  A    between atoms: _520  and  _521
REMARK  204  A    between atoms: _520  and  _523
REMARK  205  A    between atoms: _523  and  _524
REMARK  206  A    between atoms: _524  and  _525
REMARK  207  A    between atoms: _525  and  _526
REMARK  208  A    between atoms: _526  and  ZN_772
REMARK  209  A    between atoms: _528  and  _530
REMARK  210  A    between atoms: _530  and  _531
REMARK  211  A    between atoms: _534  and  _536
REMARK  212  A    between atoms: _536  and  _537
REMARK  213  A    between atoms: _539  and  _541
REMARK  214  A    between atoms: _541  and  _542
REMARK  215  A    between atoms: _541  and  _544
REMARK  216  A    between atoms: _544  and  _545
REMARK  217  A    between atoms: _548  and  _550
REMARK  218  A    between atoms: _550  and  _551
REMARK  219  A    between atoms: _554  and  _556
REMARK  220  A    between atoms: _556  and  _557
REMARK  221  A    between atoms: _556  and  _559
REMARK  222  A    between atoms: _559  and  _560
REMARK  223  A    between atoms: _563  and  _565
REMARK  224  A    between atoms: _565  and  _566
REMARK  225  A    between atoms: _565  and  _568
REMARK  226  A    between atoms: _568  and  _569
REMARK  227  A    between atoms: _569  and  _570
REMARK  228  A    between atoms: _570  and  _571
REMARK  229  A    between atoms: _571  and  _572
REMARK  230  A    between atoms: _576  and  _578
REMARK  231  A    between atoms: _578  and  _579
REMARK  232  A    between atoms: _578  and  _581
REMARK  233  A    between atoms: _581  and  _582
REMARK  234  A    between atoms: _588  and  _590
REMARK  235  A    between atoms: _590  and  _591
REMARK  236  A    between atoms: _590  and  _593
REMARK  237  A    between atoms: _593  and  _594
REMARK  238  A    between atoms: _600  and  _602
REMARK  239  A    between atoms: _602  and  _603
REMARK  240  A    between atoms: _602  and  _605
REMARK  241  A    between atoms: _605  and  _606
REMARK  242  A    between atoms: _608  and  _610
REMARK  243  A    between atoms: _610  and  _611
REMARK  244  A    between atoms: _610  and  _613
REMARK  245  A    between atoms: _616  and  _618
REMARK  246  A    between atoms: _618  and  _619
REMARK  247  A    between atoms: _618  and  _621
REMARK  248  A    between atoms: _621  and  _622
REMARK  249  A    between atoms: _622  and  _623
REMARK  250  A    between atoms: _623  and  _624
REMARK  251  A    between atoms: _624  and  _625
REMARK  252  A    between atoms: _629  and  _631
REMARK  253  A    between atoms: _631  and  _632
REMARK  254  A    between atoms: _631  and  _634
REMARK  255  A    between atoms: _634  and  _635
REMARK  256  A    between atoms: _641  and  _643
REMARK  257  A    between atoms: _643  and  _644
REMARK  258  A    between atoms: _643  and  _646
REMARK  259  A    between atoms: _646  and  _647
REMARK  260  A    between atoms: _652  and  _654
REMARK  261  A    between atoms: _654  and  _655
REMARK  262  A    between atoms: _654  and  _657
REMARK  263  A    between atoms: _657  and  _658
REMARK  264  A    between atoms: _660  and  _662
REMARK  265  A    between atoms: _662  and  _663
REMARK  266  A    between atoms: _662  and  _665
REMARK  267  A    between atoms: _665  and  _666
REMARK  268  A    between atoms: _668  and  _670
REMARK  269  A    between atoms: _670  and  _671
REMARK  270  A    between atoms: _670  and  _673
REMARK  271  A    between atoms: _677  and  _678
REMARK  272  A    between atoms: _683  and  _685
REMARK  273  A    between atoms: _685  and  _686
REMARK  274  A    between atoms: _685  and  _688
REMARK  275  A    between atoms: _688  and  _689
REMARK  276  A    between atoms: _694  and  _695
REMARK  277  A    between atoms: _697  and  _699
REMARK  278  A    between atoms: _699  and  _700
REMARK  279  A    between atoms: _699  and  _702
REMARK  280  A    between atoms: _702  and  _703
REMARK  281  A    between atoms: _703  and  _704
REMARK  282  A    between atoms: _704  and  _705
REMARK  283  A    between atoms: _714  and  _716
REMARK  284  A    between atoms: _716  and  _717
REMARK  285  A    between atoms: _716  and  _719
REMARK  286  A    between atoms: _719  and  _720
REMARK  287  A    between atoms: _725  and  _726
REMARK  288  A    between atoms: _728  and  _730
REMARK  289  A    between atoms: _730  and  _731
REMARK  290  A    between atoms: _730  and  _733
REMARK  291  A    between atoms: _733  and  _734
REMARK  292  A    between atoms: _740  and  _742
REMARK  293  A    between atoms: _742  and  _743
REMARK  294  A    between atoms: _742  and  _745
REMARK  295  A    between atoms: _745  and  _746
REMARK  296  A    between atoms: _748  and  _750
REMARK  297  A    between atoms: _750  and  _751
REMARK  298  A    between atoms: _750  and  _753
REMARK  299  A    between atoms: _753  and  _754
REMARK  300  A    between atoms: _760  and  _762
REMARK  301  A    between atoms: _762  and  _763
REMARK  302  A    between atoms: _762  and  _765
REMARK  303  A    between atoms: _765  and  _766
REMARK  304  A    between atoms: _766  and  _767
REMARK                            x       y       z     vdW  Elec       q    Type
REMARK                         _______ _______ _______ _____ _____    ______ ____
ROOT
ATOM      1  O   HOH     1      14.915  10.205 -19.210  0.00  0.00    +0.000 OA
ENDROOT
TORSDOF 0
REMARK  Name = ../refined-set-2016/2xy9/2xy9_pocket.pdb
REMARK  304 active torsions:
REMARK  status: ('A' for Active; 'I' for Inactive)
REMARK    1  A    between atoms: _1  and  _3
REMARK    2  A    between atoms: _3  and  _4
REMARK    3  A    between atoms: _3  and  _6
REMARK    4  A    between atoms: _6  and  _7
REMARK    5  A    between atoms: _12  and  _14
REMARK    6  A    between atoms: _14  and  _15
REMARK    7  A    between atoms: _14  and  _17
REMARK    8  A    between atoms: _17  and  _18
REMARK    9  A    between atoms: _23  and  _25
REMARK   10  A    between atoms: _25  and  _26
REMARK   11  A    between atoms: _25  and  _28
REMARK   12  A    between atoms: _28  and  _29
REMARK   13  A    between atoms: _29  and  _30
REMARK   14  A    between atoms: _33  and  _35
REMARK   15  A    between atoms: _35  and  _36
REMARK   16  A    between atoms: _35  and  _38
REMARK   17  A    between atoms: _38  and  _39
REMARK   18  A    between atoms: _44  and  _45
REMARK   19  A    between atoms: _47  and  _49
REMARK   20  A    between atoms: _49  and  _50
REMARK   21  A    between atoms: _49  and  _52
REMARK   22  A    between atoms: _52  and  _53
REMARK   23  A    between atoms: _56  and  _58
REMARK   24  A    between atoms: _58  and  _59
REMARK   25  A    between atoms: _61  and  _63
REMARK   26  A    between atoms: _63  and  _64
REMARK   27  A    between atoms: _63  and  _66
REMARK   28  A    between atoms: _66  and  _67
REMARK   29  A    between atoms: _72  and  _74
REMARK   30  A    between atoms: _74  and  _75
REMARK   31  A    between atoms: _74  and  _77
REMARK   32  A    between atoms: _77  and  _78
REMARK   33  A    between atoms: _88  and  _90
REMARK   34  A    between atoms: _90  and  _91
REMARK   35  A    between atoms: _90  and  _93
REMARK   36  A    between atoms: _93  and  _94
REMARK   37  A    between atoms: _94  and  _95
REMARK   38  A    between atoms: _100  and  _102
REMARK   39  A    between atoms: _102  and  _103
REMARK   40  A    between atoms: _102  and  _105
REMARK   41  A    between atoms: _105  and  _106
REMARK   42  A    between atoms: _109  and  _111
REMARK   43  A    between atoms: _111  and  _112
REMARK   44  A    between atoms: _111  and  _114
REMARK   45  A    between atoms: _114  and  _115
REMARK   46  A    between atoms: _125  and  _127
REMARK   47  A    between atoms: _127  and  _128
REMARK   48  A    between atoms: _127  and  _130
REMARK   49  A    between atoms: _130  and  _131
REMARK   50  A    between atoms: _133  and  _135
REMARK   51  A    between atoms: _135  and  _136
REMARK   52  A    between atoms: _135  and  _138
REMARK   53  A    between atoms: _138  and  _139
REMARK   54  A    between atoms: _144  and  _146
REMARK   55  A    between atoms: _146  and  _147
REMARK   56  A    between atoms: _146  and  _149
REMARK   57  A    between atoms: _152  and  _154
REMARK   58  A    between atoms: _154  and  _155
REMARK   59  A    between atoms: _154  and  _157
REMARK   60  A    between atoms: _159  and  _161
REMARK   61  A    between atoms: _161  and  _162
REMARK   62  A    between atoms: _161  and  _164
REMARK   63  A    between atoms: _164  and  _165
REMARK   64  A    between atoms: _170  and  _172
REMARK   65  A    between atoms: _172  and  _173
REMARK   66  A    between atoms: _176  and  _178
REMARK   67  A    between atoms: _178  and  _179
REMARK   68  A    between atoms: _178  and  _181
REMARK   69  A    between atoms: _181  and  _182
REMARK   70  A    between atoms: _184  and  _186
REMARK   71  A    between atoms: _186  and  _187
REMARK   72  A    between atoms: _190  and  _192
REMARK   73  A    between atoms: _192  and  _193
REMARK   74  A    between atoms: _192  and  _195
REMARK   75  A    between atoms: _195  and  _196
REMARK   76  A    between atoms: _206  and  _208
REMARK   77  A    between atoms: _208  and  _209
REMARK   78  A    between atoms: _208  and  _211
REMARK   79  A    between atoms: _211  and  _212
REMARK   80  A    between atoms: _215  and  _217
REMARK   81  A    between atoms: _217  and  _218
REMARK   82  A    between atoms: _217  and  _220
REMARK   83  A    between atoms: _220  and  _221
REMARK   84  A    between atoms: _226  and  _227
REMARK   85  A    between atoms: _229  and  _231
REMARK   86  A    between atoms: _231  and  _232
REMARK   87  A    between atoms: _231  and  _234
REMARK   88  A    between atoms: _234  and  _235
REMARK   89  A    between atoms: _235  and  _236
REMARK   90  A    between atoms: _236  and  _237
REMARK   91  A    between atoms: _246  and  _248
REMARK   92  A    between atoms: _248  and  _249
REMARK   93  A    between atoms: _248  and  _251
REMARK   94  A    between atoms: _251  and  _252
REMARK   95  A    between atoms: _255  and  _257
REMARK   96  A    between atoms: _257  and  _258
REMARK   97  A    between atoms: _257  and  _260
REMARK   98  A    between atoms: _260  and  _261
REMARK   99  A    between atoms: _261  and  _262
REMARK  100  A    between atoms: _262  and  _263
REMARK  101  A    between atoms: _263  and  _264
REMARK  102  A    between atoms: _268  and  _270
REMARK  103  A    between atoms: _270  and  _271
REMARK  104  A    between atoms: _270  and  _273
REMARK  105  A    between atoms: _273  and  _274
REMARK  106  A    between atoms: _274  and  _275
REMARK  107  A    between atoms: _280  and  _282
REMARK  108  A    between atoms: _282  and  _283
REMARK  109  A    between atoms: _282  and  _285
REMARK  110  A    between atoms: _285  and  _286
REMARK  111  A    between atoms: _289  and  _291
REMARK  112  A    between atoms: _291  and  _292
REMARK  113  A    between atoms: _291  and  _294
REMARK  114  A    between atoms: _294  and  _295
REMARK  115  A    between atoms: _295  and  _296
REMARK  116  A    between atoms: _299  and  _301
REMARK  117  A    between atoms: _301  and  _302
REMARK  118  A    between atoms: _301  and  _304
REMARK  119  A    between atoms: _304  and  _305
REMARK  120  A    between atoms: _308  and  _310
REMARK  121  A    between atoms: _310  and  _311
REMARK  122  A    between atoms: _310  and  _313
REMARK  123  A    between atoms: _313  and  _314
REMARK  124  A    between atoms: _317  and  _319
REMARK  125  A    between atoms: _319  and  _320
REMARK  126  A    between atoms: _319  and  _322
REMARK  127  A    between atoms: _325  and  _327
REMARK  128  A    between atoms: _327  and  _328
REMARK  129  A    between atoms: _327  and  _330
REMARK  130  A    between atoms: _333  and  _335
REMARK  131  A    between atoms: _335  and  _336
REMARK  132  A    between atoms: _339  and  _341
REMARK  133  A    between atoms: _341  and  _342
REMARK  134  A    between atoms: _341  and  _344
REMARK  135  A    between atoms: _344  and  _345
REMARK  136  A    between atoms: _350  and  _352
REMARK  137  A    between atoms: _352  and  _353
REMARK  138  A    between atoms: _352  and  _355
REMARK  139  A    between atoms: _355  and  _356
REMARK  140  A    between atoms: _360  and  ZN_772
REMARK  141  A    between atoms: _361  and  _363
REMARK  142  A    between atoms: _363  and  _364
REMARK  143  A    between atoms: _363  and  _366
REMARK  144  A    between atoms: _366  and  _367
REMARK  145  A    between atoms: _367  and  _368
REMARK  146  A    between atoms: _371  and  _373
REMARK  147  A    between atoms: _373  and  _374
REMARK  148  A    between atoms: _373  and  _376
REMARK  149  A    between atoms: _376  and  _377
REMARK  150  A    between atoms: _377  and  _378
REMARK  151  A    between atoms: _380  and  _382
REMARK  152  A    between atoms: _382  and  _383
REMARK  153  A    between atoms: _382  and  _385
REMARK  154  A    between atoms: _385  and  _386
REMARK  155  A    between atoms: _390  and  ZN_772
REMARK  156  A    between atoms: _391  and  _393
REMARK  157  A    between atoms: _393  and  _394
REMARK  158  A    between atoms: _393  and  _396
REMARK  159  A    between atoms: _396  and  _397
REMARK  160  A    between atoms: _400  and  _402
REMARK  161  A    between atoms: _402  and  _403
REMARK  162  A    between atoms: _402  and  _405
REMARK  163  A    between atoms: _405  and  _406
REMARK  164  A    between atoms: _411  and  _412
REMARK  165  A    between atoms: _414  and  _416
REMARK  166  A    between atoms: _416  and  _417
REMARK  167  A    between atoms: _416  and  _419
REMARK  168  A    between atoms: _419  and  _420
REMARK  169  A    between atoms: _426  and  _428
REMARK  170  A    between atoms: _428  and  _429
REMARK  171  A    between atoms: _428  and  _431
REMARK  172  A    between atoms: _431  and  _432
REMARK  173  A    between atoms: _437  and  _438
REMARK  174  A    between atoms: _440  and  _442
REMARK  175  A    between atoms: _442  and  _443
REMARK  176  A    between atoms: _442  and  _445
REMARK  177  A    between atoms: _445  and  _446
REMARK  178  A    between atoms: _446  and  _447
REMARK  179  A    between atoms: _447  and  _448
REMARK  180  A    between atoms: _457  and  _459
REMARK  181  A    between atoms: _459  and  _460
REMARK  182  A    between atoms: _459  and  _462
REMARK  183  A    between atoms: _462  and  _463
REMARK  184  A    between atoms: _463  and  _464
REMARK  185  A    between atoms: _467  and  _469
REMARK  186  A    between atoms: _469  and  _470
REMARK  187  A    between atoms: _472  and  _474
REMARK  188  A    between atoms: _474  and  _475
REMARK  189  A    between atoms: _474  and  _477
REMARK  190  A    between atoms: _477  and  _478
REMARK  191  A    between atoms: _484  and  _485
REMARK  192  A    between atoms: _490  and  _492
REMARK  193  A    between atoms: _492  and  _493
REMARK  194  A    between atoms: _495  and  _497
REMARK  195  A    between atoms: _497  and  _498
REMARK  196  A    between atoms: _497  and  _500
REMARK  197  A    between atoms: _500  and  _501
REMARK  198  A    between atoms: _507  and  _509
REMARK  199  A    between atoms: _509  and  _510
REMARK  200  A    between atoms: _509  and  _512
REMARK  201  A    between atoms: _512  and  _513
REMARK  202  A    between atoms: _518  and  _520
REMARK  203  A    between atoms: _520  and  _521
REMARK  204  A    between atoms: _520  and  _523
REMARK  205  A    between atoms: _523  and  _524
REMARK  206  A    between atoms: _524  and  _525
REMARK  207  A    between atoms: _525  and  _526
REMARK  208  A    between atoms: _526  and  ZN_772
REMARK  209  A    between atoms: _528  and  _530
REMARK  210  A    between atoms: _530  and  _531
REMARK  211  A    between atoms: _534  and  _536
REMARK  212  A    between atoms: _536  and  _537
REMARK  213  A    between atoms: _539  and  _541
REMARK  214  A    between atoms: _541  and  _542
REMARK  215  A    between atoms: _541  and  _544
REMARK  216  A    between atoms: _544  and  _545
REMARK  217  A    between atoms: _548  and  _550
REMARK  218  A    between atoms: _550  and  _551
REMARK  219  A    between atoms: _554  and  _556
REMARK  220  A    between atoms: _556  and  _557
REMARK  221  A    between atoms: _556  and  _559
REMARK  222  A    between atoms: _559  and  _560
REMARK  223  A    between atoms: _563  and  _565
REMARK  224  A    between atoms: _565  and  _566
REMARK  225  A    between atoms: _565  and  _568
REMARK  226  A    between atoms: _568  and  _569
REMARK  227  A    between atoms: _569  and  _570
REMARK  228  A    between atoms: _570  and  _571
REMARK  229  A    between atoms: _571  and  _572
REMARK  230  A    between atoms: _576  and  _578
REMARK  231  A    between atoms: _578  and  _579
REMARK  232  A    between atoms: _578  and  _581
REMARK  233  A    between atoms: _581  and  _582
REMARK  234  A    between atoms: _588  and  _590
REMARK  235  A    between atoms: _590  and  _591
REMARK  236  A    between atoms: _590  and  _593
REMARK  237  A    between atoms: _593  and  _594
REMARK  238  A    between atoms: _600  and  _602
REMARK  239  A    between atoms: _602  and  _603
REMARK  240  A    between atoms: _602  and  _605
REMARK  241  A    between atoms: _605  and  _606
REMARK  242  A    between atoms: _608  and  _610
REMARK  243  A    between atoms: _610  and  _611
REMARK  244  A    between atoms: _610  and  _613
REMARK  245  A    between atoms: _616  and  _618
REMARK  246  A    between atoms: _618  and  _619
REMARK  247  A    between atoms: _618  and  _621
REMARK  248  A    between atoms: _621  and  _622
REMARK  249  A    between atoms: _622  and  _623
REMARK  250  A    between atoms: _623  and  _624
REMARK  251  A    between atoms: _624  and  _625
REMARK  252  A    between atoms: _629  and  _631
REMARK  253  A    between atoms: _631  and  _632
REMARK  254  A    between atoms: _631  and  _634
REMARK  255  A    between atoms: _634  and  _635
REMARK  256  A    between atoms: _641  and  _643
REMARK  257  A    between atoms: _643  and  _644
REMARK  258  A    between atoms: _643  and  _646
REMARK  259  A    between atoms: _646  and  _647
REMARK  260  A    between atoms: _652  and  _654
REMARK  261  A    between atoms: _654  and  _655
REMARK  262  A    between atoms: _654  and  _657
REMARK  263  A    between atoms: _657  and  _658
REMARK  264  A    between atoms: _660  and  _662
REMARK  265  A    between atoms: _662  and  _663
REMARK  266  A    between atoms: _662  and  _665
REMARK  267  A    between atoms: _665  and  _666
REMARK  268  A    between atoms: _668  and  _670
REMARK  269  A    between atoms: _670  and  _671
REMARK  270  A    between atoms: _670  and  _673
REMARK  271  A    between atoms: _677  and  _678
REMARK  272  A    between atoms: _683  and  _685
REMARK  273  A    between atoms: _685  and  _686
REMARK  274  A    between atoms: _685  and  _688
REMARK  275  A    between atoms: _688  and  _689
REMARK  276  A    between atoms: _694  and  _695
REMARK  277  A    between atoms: _697  and  _699
REMARK  278  A    between atoms: _699  and  _700
REMARK  279  A    between atoms: _699  and  _702
REMARK  280  A    between atoms: _702  and  _703
REMARK  281  A    between atoms: _703  and  _704
REMARK  282  A    between atoms: _704  and  _705
REMARK  283  A    between atoms: _714  and  _716
REMARK  284  A    between atoms: _716  and  _717
REMARK  285  A    between atoms: _716  and  _719
REMARK  286  A    between atoms: _719  and  _720
REMARK  287  A    between atoms: _725  and  _726
REMARK  288  A    between atoms: _728  and  _730
REMARK  289  A    between atoms: _730  and  _731
REMARK  290  A    between atoms: _730  and  _733
REMARK  291  A    between atoms: _733  and  _734
REMARK  292  A    between atoms: _740  and  _742
REMARK  293  A    between atoms: _742  and  _743
REMARK  294  A    between atoms: _742  and  _745
REMARK  295  A    between atoms: _745  and  _746
REMARK  296  A    between atoms: _748  and  _750
REMARK  297  A    between atoms: _750  and  _751
REMARK  298  A    between atoms: _750  and  _753
REMARK  299  A    between atoms: _753  and  _754
REMARK  300  A    between atoms: _760  and  _762
REMARK  301  A    between atoms: _762  and  _763
REMARK  302  A    between atoms: _762  and  _765
REMARK  303  A    between atoms: _765  and  _766
REMARK  304  A    between atoms: _766  and  _767
REMARK                            x       y       z     vdW  Elec       q    Type
REMARK                         _______ _______ _______ _____ _____    ______ ____
ROOT
ATOM      1  O   HOH     1      15.879   7.774 -18.906  0.00  0.00    +0.000 OA
ENDROOT
TORSDOF 0
REMARK  Name = ../refined-set-2016/2xy9/2xy9_pocket.pdb
REMARK  304 active torsions:
REMARK  status: ('A' for Active; 'I' for Inactive)
REMARK    1  A    between atoms: _1  and  _3
REMARK    2  A    between atoms: _3  and  _4
REMARK    3  A    between atoms: _3  and  _6
REMARK    4  A    between atoms: _6  and  _7
REMARK    5  A    between atoms: _12  and  _14
REMARK    6  A    between atoms: _14  and  _15
REMARK    7  A    between atoms: _14  and  _17
REMARK    8  A    between atoms: _17  and  _18
REMARK    9  A    between atoms: _23  and  _25
REMARK   10  A    between atoms: _25  and  _26
REMARK   11  A    between atoms: _25  and  _28
REMARK   12  A    between atoms: _28  and  _29
REMARK   13  A    between atoms: _29  and  _30
REMARK   14  A    between atoms: _33  and  _35
REMARK   15  A    between atoms: _35  and  _36
REMARK   16  A    between atoms: _35  and  _38
REMARK   17  A    between atoms: _38  and  _39
REMARK   18  A    between atoms: _44  and  _45
REMARK   19  A    between atoms: _47  and  _49
REMARK   20  A    between atoms: _49  and  _50
REMARK   21  A    between atoms: _49  and  _52
REMARK   22  A    between atoms: _52  and  _53
REMARK   23  A    between atoms: _56  and  _58
REMARK   24  A    between atoms: _58  and  _59
REMARK   25  A    between atoms: _61  and  _63
REMARK   26  A    between atoms: _63  and  _64
REMARK   27  A    between atoms: _63  and  _66
REMARK   28  A    between atoms: _66  and  _67
REMARK   29  A    between atoms: _72  and  _74
REMARK   30  A    between atoms: _74  and  _75
REMARK   31  A    between atoms: _74  and  _77
REMARK   32  A    between atoms: _77  and  _78
REMARK   33  A    between atoms: _88  and  _90
REMARK   34  A    between atoms: _90  and  _91
REMARK   35  A    between atoms: _90  and  _93
REMARK   36  A    between atoms: _93  and  _94
REMARK   37  A    between atoms: _94  and  _95
REMARK   38  A    between atoms: _100  and  _102
REMARK   39  A    between atoms: _102  and  _103
REMARK   40  A    between atoms: _102  and  _105
REMARK   41  A    between atoms: _105  and  _106
REMARK   42  A    between atoms: _109  and  _111
REMARK   43  A    between atoms: _111  and  _112
REMARK   44  A    between atoms: _111  and  _114
REMARK   45  A    between atoms: _114  and  _115
REMARK   46  A    between atoms: _125  and  _127
REMARK   47  A    between atoms: _127  and  _128
REMARK   48  A    between atoms: _127  and  _130
REMARK   49  A    between atoms: _130  and  _131
REMARK   50  A    between atoms: _133  and  _135
REMARK   51  A    between atoms: _135  and  _136
REMARK   52  A    between atoms: _135  and  _138
REMARK   53  A    between atoms: _138  and  _139
REMARK   54  A    between atoms: _144  and  _146
REMARK   55  A    between atoms: _146  and  _147
REMARK   56  A    between atoms: _146  and  _149
REMARK   57  A    between atoms: _152  and  _154
REMARK   58  A    between atoms: _154  and  _155
REMARK   59  A    between atoms: _154  and  _157
REMARK   60  A    between atoms: _159  and  _161
REMARK   61  A    between atoms: _161  and  _162
REMARK   62  A    between atoms: _161  and  _164
REMARK   63  A    between atoms: _164  and  _165
REMARK   64  A    between atoms: _170  and  _172
REMARK   65  A    between atoms: _172  and  _173
REMARK   66  A    between atoms: _176  and  _178
REMARK   67  A    between atoms: _178  and  _179
REMARK   68  A    between atoms: _178  and  _181
REMARK   69  A    between atoms: _181  and  _182
REMARK   70  A    between atoms: _184  and  _186
REMARK   71  A    between atoms: _186  and  _187
REMARK   72  A    between atoms: _190  and  _192
REMARK   73  A    between atoms: _192  and  _193
REMARK   74  A    between atoms: _192  and  _195
REMARK   75  A    between atoms: _195  and  _196
REMARK   76  A    between atoms: _206  and  _208
REMARK   77  A    between atoms: _208  and  _209
REMARK   78  A    between atoms: _208  and  _211
REMARK   79  A    between atoms: _211  and  _212
REMARK   80  A    between atoms: _215  and  _217
REMARK   81  A    between atoms: _217  and  _218
REMARK   82  A    between atoms: _217  and  _220
REMARK   83  A    between atoms: _220  and  _221
REMARK   84  A    between atoms: _226  and  _227
REMARK   85  A    between atoms: _229  and  _231
REMARK   86  A    between atoms: _231  and  _232
REMARK   87  A    between atoms: _231  and  _234
REMARK   88  A    between atoms: _234  and  _235
REMARK   89  A    between atoms: _235  and  _236
REMARK   90  A    between atoms: _236  and  _237
REMARK   91  A    between atoms: _246  and  _248
REMARK   92  A    between atoms: _248  and  _249
REMARK   93  A    between atoms: _248  and  _251
REMARK   94  A    between atoms: _251  and  _252
REMARK   95  A    between atoms: _255  and  _257
REMARK   96  A    between atoms: _257  and  _258
REMARK   97  A    between atoms: _257  and  _260
REMARK   98  A    between atoms: _260  and  _261
REMARK   99  A    between atoms: _261  and  _262
REMARK  100  A    between atoms: _262  and  _263
REMARK  101  A    between atoms: _263  and  _264
REMARK  102  A    between atoms: _268  and  _270
REMARK  103  A    between atoms: _270  and  _271
REMARK  104  A    between atoms: _270  and  _273
REMARK  105  A    between atoms: _273  and  _274
REMARK  106  A    between atoms: _274  and  _275
REMARK  107  A    between atoms: _280  and  _282
REMARK  108  A    between atoms: _282  and  _283
REMARK  109  A    between atoms: _282  and  _285
REMARK  110  A    between atoms: _285  and  _286
REMARK  111  A    between atoms: _289  and  _291
REMARK  112  A    between atoms: _291  and  _292
REMARK  113  A    between atoms: _291  and  _294
REMARK  114  A    between atoms: _294  and  _295
REMARK  115  A    between atoms: _295  and  _296
REMARK  116  A    between atoms: _299  and  _301
REMARK  117  A    between atoms: _301  and  _302
REMARK  118  A    between atoms: _301  and  _304
REMARK  119  A    between atoms: _304  and  _305
REMARK  120  A    between atoms: _308  and  _310
REMARK  121  A    between atoms: _310  and  _311
REMARK  122  A    between atoms: _310  and  _313
REMARK  123  A    between atoms: _313  and  _314
REMARK  124  A    between atoms: _317  and  _319
REMARK  125  A    between atoms: _319  and  _320
REMARK  126  A    between atoms: _319  and  _322
REMARK  127  A    between atoms: _325  and  _327
REMARK  128  A    between atoms: _327  and  _328
REMARK  129  A    between atoms: _327  and  _330
REMARK  130  A    between atoms: _333  and  _335
REMARK  131  A    between atoms: _335  and  _336
REMARK  132  A    between atoms: _339  and  _341
REMARK  133  A    between atoms: _341  and  _342
REMARK  134  A    between atoms: _341  and  _344
REMARK  135  A    between atoms: _344  and  _345
REMARK  136  A    between atoms: _350  and  _352
REMARK  137  A    between atoms: _352  and  _353
REMARK  138  A    between atoms: _352  and  _355
REMARK  139  A    between atoms: _355  and  _356
REMARK  140  A    between atoms: _360  and  ZN_772
REMARK  141  A    between atoms: _361  and  _363
REMARK  142  A    between atoms: _363  and  _364
REMARK  143  A    between atoms: _363  and  _366
REMARK  144  A    between atoms: _366  and  _367
REMARK  145  A    between atoms: _367  and  _368
REMARK  146  A    between atoms: _371  and  _373
REMARK  147  A    between atoms: _373  and  _374
REMARK  148  A    between atoms: _373  and  _376
REMARK  149  A    between atoms: _376  and  _377
REMARK  150  A    between atoms: _377  and  _378
REMARK  151  A    between atoms: _380  and  _382
REMARK  152  A    between atoms: _382  and  _383
REMARK  153  A    between atoms: _382  and  _385
REMARK  154  A    between atoms: _385  and  _386
REMARK  155  A    between atoms: _390  and  ZN_772
REMARK  156  A    between atoms: _391  and  _393
REMARK  157  A    between atoms: _393  and  _394
REMARK  158  A    between atoms: _393  and  _396
REMARK  159  A    between atoms: _396  and  _397
REMARK  160  A    between atoms: _400  and  _402
REMARK  161  A    between atoms: _402  and  _403
REMARK  162  A    between atoms: _402  and  _405
REMARK  163  A    between atoms: _405  and  _406
REMARK  164  A    between atoms: _411  and  _412
REMARK  165  A    between atoms: _414  and  _416
REMARK  166  A    between atoms: _416  and  _417
REMARK  167  A    between atoms: _416  and  _419
REMARK  168  A    between atoms: _419  and  _420
REMARK  169  A    between atoms: _426  and  _428
REMARK  170  A    between atoms: _428  and  _429
REMARK  171  A    between atoms: _428  and  _431
REMARK  172  A    between atoms: _431  and  _432
REMARK  173  A    between atoms: _437  and  _438
REMARK  174  A    between atoms: _440  and  _442
REMARK  175  A    between atoms: _442  and  _443
REMARK  176  A    between atoms: _442  and  _445
REMARK  177  A    between atoms: _445  and  _446
REMARK  178  A    between atoms: _446  and  _447
REMARK  179  A    between atoms: _447  and  _448
REMARK  180  A    between atoms: _457  and  _459
REMARK  181  A    between atoms: _459  and  _460
REMARK  182  A    between atoms: _459  and  _462
REMARK  183  A    between atoms: _462  and  _463
REMARK  184  A    between atoms: _463  and  _464
REMARK  185  A    between atoms: _467  and  _469
REMARK  186  A    between atoms: _469  and  _470
REMARK  187  A    between atoms: _472  and  _474
REMARK  188  A    between atoms: _474  and  _475
REMARK  189  A    between atoms: _474  and  _477
REMARK  190  A    between atoms: _477  and  _478
REMARK  191  A    between atoms: _484  and  _485
REMARK  192  A    between atoms: _490  and  _492
REMARK  193  A    between atoms: _492  and  _493
REMARK  194  A    between atoms: _495  and  _497
REMARK  195  A    between atoms: _497  and  _498
REMARK  196  A    between atoms: _497  and  _500
REMARK  197  A    between atoms: _500  and  _501
REMARK  198  A    between atoms: _507  and  _509
REMARK  199  A    between atoms: _509  and  _510
REMARK  200  A    between atoms: _509  and  _512
REMARK  201  A    between atoms: _512  and  _513
REMARK  202  A    between atoms: _518  and  _520
REMARK  203  A    between atoms: _520  and  _521
REMARK  204  A    between atoms: _520  and  _523
REMARK  205  A    between atoms: _523  and  _524
REMARK  206  A    between atoms: _524  and  _525
REMARK  207  A    between atoms: _525  and  _526
REMARK  208  A    between atoms: _526  and  ZN_772
REMARK  209  A    between atoms: _528  and  _530
REMARK  210  A    between atoms: _530  and  _531
REMARK  211  A    between atoms: _534  and  _536
REMARK  212  A    between atoms: _536  and  _537
REMARK  213  A    between atoms: _539  and  _541
REMARK  214  A    between atoms: _541  and  _542
REMARK  215  A    between atoms: _541  and  _544
REMARK  216  A    between atoms: _544  and  _545
REMARK  217  A    between atoms: _548  and  _550
REMARK  218  A    between atoms: _550  and  _551
REMARK  219  A    between atoms: _554  and  _556
REMARK  220  A    between atoms: _556  and  _557
REMARK  221  A    between atoms: _556  and  _559
REMARK  222  A    between atoms: _559  and  _560
REMARK  223  A    between atoms: _563  and  _565
REMARK  224  A    between atoms: _565  and  _566
REMARK  225  A    between atoms: _565  and  _568
REMARK  226  A    between atoms: _568  and  _569
REMARK  227  A    between atoms: _569  and  _570
REMARK  228  A    between atoms: _570  and  _571
REMARK  229  A    between atoms: _571  and  _572
REMARK  230  A    between atoms: _576  and  _578
REMARK  231  A    between atoms: _578  and  _579
REMARK  232  A    between atoms: _578  and  _581
REMARK  233  A    between atoms: _581  and  _582
REMARK  234  A    between atoms: _588  and  _590
REMARK  235  A    between atoms: _590  and  _591
REMARK  236  A    between atoms: _590  and  _593
REMARK  237  A    between atoms: _593  and  _594
REMARK  238  A    between atoms: _600  and  _602
REMARK  239  A    between atoms: _602  and  _603
REMARK  240  A    between atoms: _602  and  _605
REMARK  241  A    between atoms: _605  and  _606
REMARK  242  A    between atoms: _608  and  _610
REMARK  243  A    between atoms: _610  and  _611
REMARK  244  A    between atoms: _610  and  _613
REMARK  245  A    between atoms: _616  and  _618
REMARK  246  A    between atoms: _618  and  _619
REMARK  247  A    between atoms: _618  and  _621
REMARK  248  A    between atoms: _621  and  _622
REMARK  249  A    between atoms: _622  and  _623
REMARK  250  A    between atoms: _623  and  _624
REMARK  251  A    between atoms: _624  and  _625
REMARK  252  A    between atoms: _629  and  _631
REMARK  253  A    between atoms: _631  and  _632
REMARK  254  A    between atoms: _631  and  _634
REMARK  255  A    between atoms: _634  and  _635
REMARK  256  A    between atoms: _641  and  _643
REMARK  257  A    between atoms: _643  and  _644
REMARK  258  A    between atoms: _643  and  _646
REMARK  259  A    between atoms: _646  and  _647
REMARK  260  A    between atoms: _652  and  _654
REMARK  261  A    between atoms: _654  and  _655
REMARK  262  A    between atoms: _654  and  _657
REMARK  263  A    between atoms: _657  and  _658
REMARK  264  A    between atoms: _660  and  _662
REMARK  265  A    between atoms: _662  and  _663
REMARK  266  A    between atoms: _662  and  _665
REMARK  267  A    between atoms: _665  and  _666
REMARK  268  A    between atoms: _668  and  _670
REMARK  269  A    between atoms: _670  and  _671
REMARK  270  A    between atoms: _670  and  _673
REMARK  271  A    between atoms: _677  and  _678
REMARK  272  A    between atoms: _683  and  _685
REMARK  273  A    between atoms: _685  and  _686
REMARK  274  A    between atoms: _685  and  _688
REMARK  275  A    between atoms: _688  and  _689
REMARK  276  A    between atoms: _694  and  _695
REMARK  277  A    between atoms: _697  and  _699
REMARK  278  A    between atoms: _699  and  _700
REMARK  279  A    between atoms: _699  and  _702
REMARK  280  A    between atoms: _702  and  _703
REMARK  281  A    between atoms: _703  and  _704
REMARK  282  A    between atoms: _704  and  _705
REMARK  283  A    between atoms: _714  and  _716
REMARK  284  A    between atoms: _716  and  _717
REMARK  285  A    between atoms: _716  and  _719
REMARK  286  A    between atoms: _719  and  _720
REMARK  287  A    between atoms: _725  and  _726
REMARK  288  A    between atoms: _728  and  _730
REMARK  289  A    between atoms: _730  and  _731
REMARK  290  A    between atoms: _730  and  _733
REMARK  291  A    between atoms: _733  and  _734
REMARK  292  A    between atoms: _740  and  _742
REMARK  293  A    between atoms: _742  and  _743
REMARK  294  A    between atoms: _742  and  _745
REMARK  295  A    between atoms: _745  and  _746
REMARK  296  A    between atoms: _748  and  _750
REMARK  297  A    between atoms: _750  and  _751
REMARK  298  A    between atoms: _750  and  _753
REMARK  299  A    between atoms: _753  and  _754
REMARK  300  A    between atoms: _760  and  _762
REMARK  301  A    between atoms: _762  and  _763
REMARK  302  A    between atoms: _762  and  _765
REMARK  303  A    between atoms: _765  and  _766
REMARK  304  A    between atoms: _766  and  _767
REMARK                            x       y       z     vdW  Elec       q    Type
REMARK                         _______ _______ _______ _____ _____    ______ ____
ROOT
ATOM      1  O   HOH     1      14.621   3.998 -21.016  0.00  0.00    +0.000 OA
ENDROOT
TORSDOF 0
REMARK  Name = ../refined-set-2016/2xy9/2xy9_pocket.pdb
REMARK  304 active torsions:
REMARK  status: ('A' for Active; 'I' for Inactive)
REMARK    1  A    between atoms: _1  and  _3
REMARK    2  A    between atoms: _3  and  _4
REMARK    3  A    between atoms: _3  and  _6
REMARK    4  A    between atoms: _6  and  _7
REMARK    5  A    between atoms: _12  and  _14
REMARK    6  A    between atoms: _14  and  _15
REMARK    7  A    between atoms: _14  and  _17
REMARK    8  A    between atoms: _17  and  _18
REMARK    9  A    between atoms: _23  and  _25
REMARK   10  A    between atoms: _25  and  _26
REMARK   11  A    between atoms: _25  and  _28
REMARK   12  A    between atoms: _28  and  _29
REMARK   13  A    between atoms: _29  and  _30
REMARK   14  A    between atoms: _33  and  _35
REMARK   15  A    between atoms: _35  and  _36
REMARK   16  A    between atoms: _35  and  _38
REMARK   17  A    between atoms: _38  and  _39
REMARK   18  A    between atoms: _44  and  _45
REMARK   19  A    between atoms: _47  and  _49
REMARK   20  A    between atoms: _49  and  _50
REMARK   21  A    between atoms: _49  and  _52
REMARK   22  A    between atoms: _52  and  _53
REMARK   23  A    between atoms: _56  and  _58
REMARK   24  A    between atoms: _58  and  _59
REMARK   25  A    between atoms: _61  and  _63
REMARK   26  A    between atoms: _63  and  _64
REMARK   27  A    between atoms: _63  and  _66
REMARK   28  A    between atoms: _66  and  _67
REMARK   29  A    between atoms: _72  and  _74
REMARK   30  A    between atoms: _74  and  _75
REMARK   31  A    between atoms: _74  and  _77
REMARK   32  A    between atoms: _77  and  _78
REMARK   33  A    between atoms: _88  and  _90
REMARK   34  A    between atoms: _90  and  _91
REMARK   35  A    between atoms: _90  and  _93
REMARK   36  A    between atoms: _93  and  _94
REMARK   37  A    between atoms: _94  and  _95
REMARK   38  A    between atoms: _100  and  _102
REMARK   39  A    between atoms: _102  and  _103
REMARK   40  A    between atoms: _102  and  _105
REMARK   41  A    between atoms: _105  and  _106
REMARK   42  A    between atoms: _109  and  _111
REMARK   43  A    between atoms: _111  and  _112
REMARK   44  A    between atoms: _111  and  _114
REMARK   45  A    between atoms: _114  and  _115
REMARK   46  A    between atoms: _125  and  _127
REMARK   47  A    between atoms: _127  and  _128
REMARK   48  A    between atoms: _127  and  _130
REMARK   49  A    between atoms: _130  and  _131
REMARK   50  A    between atoms: _133  and  _135
REMARK   51  A    between atoms: _135  and  _136
REMARK   52  A    between atoms: _135  and  _138
REMARK   53  A    between atoms: _138  and  _139
REMARK   54  A    between atoms: _144  and  _146
REMARK   55  A    between atoms: _146  and  _147
REMARK   56  A    between atoms: _146  and  _149
REMARK   57  A    between atoms: _152  and  _154
REMARK   58  A    between atoms: _154  and  _155
REMARK   59  A    between atoms: _154  and  _157
REMARK   60  A    between atoms: _159  and  _161
REMARK   61  A    between atoms: _161  and  _162
REMARK   62  A    between atoms: _161  and  _164
REMARK   63  A    between atoms: _164  and  _165
REMARK   64  A    between atoms: _170  and  _172
REMARK   65  A    between atoms: _172  and  _173
REMARK   66  A    between atoms: _176  and  _178
REMARK   67  A    between atoms: _178  and  _179
REMARK   68  A    between atoms: _178  and  _181
REMARK   69  A    between atoms: _181  and  _182
REMARK   70  A    between atoms: _184  and  _186
REMARK   71  A    between atoms: _186  and  _187
REMARK   72  A    between atoms: _190  and  _192
REMARK   73  A    between atoms: _192  and  _193
REMARK   74  A    between atoms: _192  and  _195
REMARK   75  A    between atoms: _195  and  _196
REMARK   76  A    between atoms: _206  and  _208
REMARK   77  A    between atoms: _208  and  _209
REMARK   78  A    between atoms: _208  and  _211
REMARK   79  A    between atoms: _211  and  _212
REMARK   80  A    between atoms: _215  and  _217
REMARK   81  A    between atoms: _217  and  _218
REMARK   82  A    between atoms: _217  and  _220
REMARK   83  A    between atoms: _220  and  _221
REMARK   84  A    between atoms: _226  and  _227
REMARK   85  A    between atoms: _229  and  _231
REMARK   86  A    between atoms: _231  and  _232
REMARK   87  A    between atoms: _231  and  _234
REMARK   88  A    between atoms: _234  and  _235
REMARK   89  A    between atoms: _235  and  _236
REMARK   90  A    between atoms: _236  and  _237
REMARK   91  A    between atoms: _246  and  _248
REMARK   92  A    between atoms: _248  and  _249
REMARK   93  A    between atoms: _248  and  _251
REMARK   94  A    between atoms: _251  and  _252
REMARK   95  A    between atoms: _255  and  _257
REMARK   96  A    between atoms: _257  and  _258
REMARK   97  A    between atoms: _257  and  _260
REMARK   98  A    between atoms: _260  and  _261
REMARK   99  A    between atoms: _261  and  _262
REMARK  100  A    between atoms: _262  and  _263
REMARK  101  A    between atoms: _263  and  _264
REMARK  102  A    between atoms: _268  and  _270
REMARK  103  A    between atoms: _270  and  _271
REMARK  104  A    between atoms: _270  and  _273
REMARK  105  A    between atoms: _273  and  _274
REMARK  106  A    between atoms: _274  and  _275
REMARK  107  A    between atoms: _280  and  _282
REMARK  108  A    between atoms: _282  and  _283
REMARK  109  A    between atoms: _282  and  _285
REMARK  110  A    between atoms: _285  and  _286
REMARK  111  A    between atoms: _289  and  _291
REMARK  112  A    between atoms: _291  and  _292
REMARK  113  A    between atoms: _291  and  _294
REMARK  114  A    between atoms: _294  and  _295
REMARK  115  A    between atoms: _295  and  _296
REMARK  116  A    between atoms: _299  and  _301
REMARK  117  A    between atoms: _301  and  _302
REMARK  118  A    between atoms: _301  and  _304
REMARK  119  A    between atoms: _304  and  _305
REMARK  120  A    between atoms: _308  and  _310
REMARK  121  A    between atoms: _310  and  _311
REMARK  122  A    between atoms: _310  and  _313
REMARK  123  A    between atoms: _313  and  _314
REMARK  124  A    between atoms: _317  and  _319
REMARK  125  A    between atoms: _319  and  _320
REMARK  126  A    between atoms: _319  and  _322
REMARK  127  A    between atoms: _325  and  _327
REMARK  128  A    between atoms: _327  and  _328
REMARK  129  A    between atoms: _327  and  _330
REMARK  130  A    between atoms: _333  and  _335
REMARK  131  A    between atoms: _335  and  _336
REMARK  132  A    between atoms: _339  and  _341
REMARK  133  A    between atoms: _341  and  _342
REMARK  134  A    between atoms: _341  and  _344
REMARK  135  A    between atoms: _344  and  _345
REMARK  136  A    between atoms: _350  and  _352
REMARK  137  A    between atoms: _352  and  _353
REMARK  138  A    between atoms: _352  and  _355
REMARK  139  A    between atoms: _355  and  _356
REMARK  140  A    between atoms: _360  and  ZN_772
REMARK  141  A    between atoms: _361  and  _363
REMARK  142  A    between atoms: _363  and  _364
REMARK  143  A    between atoms: _363  and  _366
REMARK  144  A    between atoms: _366  and  _367
REMARK  145  A    between atoms: _367  and  _368
REMARK  146  A    between atoms: _371  and  _373
REMARK  147  A    between atoms: _373  and  _374
REMARK  148  A    between atoms: _373  and  _376
REMARK  149  A    between atoms: _376  and  _377
REMARK  150  A    between atoms: _377  and  _378
REMARK  151  A    between atoms: _380  and  _382
REMARK  152  A    between atoms: _382  and  _383
REMARK  153  A    between atoms: _382  and  _385
REMARK  154  A    between atoms: _385  and  _386
REMARK  155  A    between atoms: _390  and  ZN_772
REMARK  156  A    between atoms: _391  and  _393
REMARK  157  A    between atoms: _393  and  _394
REMARK  158  A    between atoms: _393  and  _396
REMARK  159  A    between atoms: _396  and  _397
REMARK  160  A    between atoms: _400  and  _402
REMARK  161  A    between atoms: _402  and  _403
REMARK  162  A    between atoms: _402  and  _405
REMARK  163  A    between atoms: _405  and  _406
REMARK  164  A    between atoms: _411  and  _412
REMARK  165  A    between atoms: _414  and  _416
REMARK  166  A    between atoms: _416  and  _417
REMARK  167  A    between atoms: _416  and  _419
REMARK  168  A    between atoms: _419  and  _420
REMARK  169  A    between atoms: _426  and  _428
REMARK  170  A    between atoms: _428  and  _429
REMARK  171  A    between atoms: _428  and  _431
REMARK  172  A    between atoms: _431  and  _432
REMARK  173  A    between atoms: _437  and  _438
REMARK  174  A    between atoms: _440  and  _442
REMARK  175  A    between atoms: _442  and  _443
REMARK  176  A    between atoms: _442  and  _445
REMARK  177  A    between atoms: _445  and  _446
REMARK  178  A    between atoms: _446  and  _447
REMARK  179  A    between atoms: _447  and  _448
REMARK  180  A    between atoms: _457  and  _459
REMARK  181  A    between atoms: _459  and  _460
REMARK  182  A    between atoms: _459  and  _462
REMARK  183  A    between atoms: _462  and  _463
REMARK  184  A    between atoms: _463  and  _464
REMARK  185  A    between atoms: _467  and  _469
REMARK  186  A    between atoms: _469  and  _470
REMARK  187  A    between atoms: _472  and  _474
REMARK  188  A    between atoms: _474  and  _475
REMARK  189  A    between atoms: _474  and  _477
REMARK  190  A    between atoms: _477  and  _478
REMARK  191  A    between atoms: _484  and  _485
REMARK  192  A    between atoms: _490  and  _492
REMARK  193  A    between atoms: _492  and  _493
REMARK  194  A    between atoms: _495  and  _497
REMARK  195  A    between atoms: _497  and  _498
REMARK  196  A    between atoms: _497  and  _500
REMARK  197  A    between atoms: _500  and  _501
REMARK  198  A    between atoms: _507  and  _509
REMARK  199  A    between atoms: _509  and  _510
REMARK  200  A    between atoms: _509  and  _512
REMARK  201  A    between atoms: _512  and  _513
REMARK  202  A    between atoms: _518  and  _520
REMARK  203  A    between atoms: _520  and  _521
REMARK  204  A    between atoms: _520  and  _523
REMARK  205  A    between atoms: _523  and  _524
REMARK  206  A    between atoms: _524  and  _525
REMARK  207  A    between atoms: _525  and  _526
REMARK  208  A    between atoms: _526  and  ZN_772
REMARK  209  A    between atoms: _528  and  _530
REMARK  210  A    between atoms: _530  and  _531
REMARK  211  A    between atoms: _534  and  _536
REMARK  212  A    between atoms: _536  and  _537
REMARK  213  A    between atoms: _539  and  _541
REMARK  214  A    between atoms: _541  and  _542
REMARK  215  A    between atoms: _541  and  _544
REMARK  216  A    between atoms: _544  and  _545
REMARK  217  A    between atoms: _548  and  _550
REMARK  218  A    between atoms: _550  and  _551
REMARK  219  A    between atoms: _554  and  _556
REMARK  220  A    between atoms: _556  and  _557
REMARK  221  A    between atoms: _556  and  _559
REMARK  222  A    between atoms: _559  and  _560
REMARK  223  A    between atoms: _563  and  _565
REMARK  224  A    between atoms: _565  and  _566
REMARK  225  A    between atoms: _565  and  _568
REMARK  226  A    between atoms: _568  and  _569
REMARK  227  A    between atoms: _569  and  _570
REMARK  228  A    between atoms: _570  and  _571
REMARK  229  A    between atoms: _571  and  _572
REMARK  230  A    between atoms: _576  and  _578
REMARK  231  A    between atoms: _578  and  _579
REMARK  232  A    between atoms: _578  and  _581
REMARK  233  A    between atoms: _581  and  _582
REMARK  234  A    between atoms: _588  and  _590
REMARK  235  A    between atoms: _590  and  _591
REMARK  236  A    between atoms: _590  and  _593
REMARK  237  A    between atoms: _593  and  _594
REMARK  238  A    between atoms: _600  and  _602
REMARK  239  A    between atoms: _602  and  _603
REMARK  240  A    between atoms: _602  and  _605
REMARK  241  A    between atoms: _605  and  _606
REMARK  242  A    between atoms: _608  and  _610
REMARK  243  A    between atoms: _610  and  _611
REMARK  244  A    between atoms: _610  and  _613
REMARK  245  A    between atoms: _616  and  _618
REMARK  246  A    between atoms: _618  and  _619
REMARK  247  A    between atoms: _618  and  _621
REMARK  248  A    between atoms: _621  and  _622
REMARK  249  A    between atoms: _622  and  _623
REMARK  250  A    between atoms: _623  and  _624
REMARK  251  A    between atoms: _624  and  _625
REMARK  252  A    between atoms: _629  and  _631
REMARK  253  A    between atoms: _631  and  _632
REMARK  254  A    between atoms: _631  and  _634
REMARK  255  A    between atoms: _634  and  _635
REMARK  256  A    between atoms: _641  and  _643
REMARK  257  A    between atoms: _643  and  _644
REMARK  258  A    between atoms: _643  and  _646
REMARK  259  A    between atoms: _646  and  _647
REMARK  260  A    between atoms: _652  and  _654
REMARK  261  A    between atoms: _654  and  _655
REMARK  262  A    between atoms: _654  and  _657
REMARK  263  A    between atoms: _657  and  _658
REMARK  264  A    between atoms: _660  and  _662
REMARK  265  A    between atoms: _662  and  _663
REMARK  266  A    between atoms: _662  and  _665
REMARK  267  A    between atoms: _665  and  _666
REMARK  268  A    between atoms: _668  and  _670
REMARK  269  A    between atoms: _670  and  _671
REMARK  270  A    between atoms: _670  and  _673
REMARK  271  A    between atoms: _677  and  _678
REMARK  272  A    between atoms: _683  and  _685
REMARK  273  A    between atoms: _685  and  _686
REMARK  274  A    between atoms: _685  and  _688
REMARK  275  A    between atoms: _688  and  _689
REMARK  276  A    between atoms: _694  and  _695
REMARK  277  A    between atoms: _697  and  _699
REMARK  278  A    between atoms: _699  and  _700
REMARK  279  A    between atoms: _699  and  _702
REMARK  280  A    between atoms: _702  and  _703
REMARK  281  A    between atoms: _703  and  _704
REMARK  282  A    between atoms: _704  and  _705
REMARK  283  A    between atoms: _714  and  _716
REMARK  284  A    between atoms: _716  and  _717
REMARK  285  A    between atoms: _716  and  _719
REMARK  286  A    between atoms: _719  and  _720
REMARK  287  A    between atoms: _725  and  _726
REMARK  288  A    between atoms: _728  and  _730
REMARK  289  A    between atoms: _730  and  _731
REMARK  290  A    between atoms: _730  and  _733
REMARK  291  A    between atoms: _733  and  _734
REMARK  292  A    between atoms: _740  and  _742
REMARK  293  A    between atoms: _742  and  _743
REMARK  294  A    between atoms: _742  and  _745
REMARK  295  A    between atoms: _745  and  _746
REMARK  296  A    between atoms: _748  and  _750
REMARK  297  A    between atoms: _750  and  _751
REMARK  298  A    between atoms: _750  and  _753
REMARK  299  A    between atoms: _753  and  _754
REMARK  300  A    between atoms: _760  and  _762
REMARK  301  A    between atoms: _762  and  _763
REMARK  302  A    between atoms: _762  and  _765
REMARK  303  A    between atoms: _765  and  _766
REMARK  304  A    between atoms: _766  and  _767
REMARK                            x       y       z     vdW  Elec       q    Type
REMARK                         _______ _______ _______ _____ _____    ______ ____
ROOT
ATOM      1  O   HOH     1      12.940   0.259 -20.542  0.00  0.00    +0.000 OA
ENDROOT
TORSDOF 0
REMARK  Name = ../refined-set-2016/2xy9/2xy9_pocket.pdb
REMARK  304 active torsions:
REMARK  status: ('A' for Active; 'I' for Inactive)
REMARK    1  A    between atoms: _1  and  _3
REMARK    2  A    between atoms: _3  and  _4
REMARK    3  A    between atoms: _3  and  _6
REMARK    4  A    between atoms: _6  and  _7
REMARK    5  A    between atoms: _12  and  _14
REMARK    6  A    between atoms: _14  and  _15
REMARK    7  A    between atoms: _14  and  _17
REMARK    8  A    between atoms: _17  and  _18
REMARK    9  A    between atoms: _23  and  _25
REMARK   10  A    between atoms: _25  and  _26
REMARK   11  A    between atoms: _25  and  _28
REMARK   12  A    between atoms: _28  and  _29
REMARK   13  A    between atoms: _29  and  _30
REMARK   14  A    between atoms: _33  and  _35
REMARK   15  A    between atoms: _35  and  _36
REMARK   16  A    between atoms: _35  and  _38
REMARK   17  A    between atoms: _38  and  _39
REMARK   18  A    between atoms: _44  and  _45
REMARK   19  A    between atoms: _47  and  _49
REMARK   20  A    between atoms: _49  and  _50
REMARK   21  A    between atoms: _49  and  _52
REMARK   22  A    between atoms: _52  and  _53
REMARK   23  A    between atoms: _56  and  _58
REMARK   24  A    between atoms: _58  and  _59
REMARK   25  A    between atoms: _61  and  _63
REMARK   26  A    between atoms: _63  and  _64
REMARK   27  A    between atoms: _63  and  _66
REMARK   28  A    between atoms: _66  and  _67
REMARK   29  A    between atoms: _72  and  _74
REMARK   30  A    between atoms: _74  and  _75
REMARK   31  A    between atoms: _74  and  _77
REMARK   32  A    between atoms: _77  and  _78
REMARK   33  A    between atoms: _88  and  _90
REMARK   34  A    between atoms: _90  and  _91
REMARK   35  A    between atoms: _90  and  _93
REMARK   36  A    between atoms: _93  and  _94
REMARK   37  A    between atoms: _94  and  _95
REMARK   38  A    between atoms: _100  and  _102
REMARK   39  A    between atoms: _102  and  _103
REMARK   40  A    between atoms: _102  and  _105
REMARK   41  A    between atoms: _105  and  _106
REMARK   42  A    between atoms: _109  and  _111
REMARK   43  A    between atoms: _111  and  _112
REMARK   44  A    between atoms: _111  and  _114
REMARK   45  A    between atoms: _114  and  _115
REMARK   46  A    between atoms: _125  and  _127
REMARK   47  A    between atoms: _127  and  _128
REMARK   48  A    between atoms: _127  and  _130
REMARK   49  A    between atoms: _130  and  _131
REMARK   50  A    between atoms: _133  and  _135
REMARK   51  A    between atoms: _135  and  _136
REMARK   52  A    between atoms: _135  and  _138
REMARK   53  A    between atoms: _138  and  _139
REMARK   54  A    between atoms: _144  and  _146
REMARK   55  A    between atoms: _146  and  _147
REMARK   56  A    between atoms: _146  and  _149
REMARK   57  A    between atoms: _152  and  _154
REMARK   58  A    between atoms: _154  and  _155
REMARK   59  A    between atoms: _154  and  _157
REMARK   60  A    between atoms: _159  and  _161
REMARK   61  A    between atoms: _161  and  _162
REMARK   62  A    between atoms: _161  and  _164
REMARK   63  A    between atoms: _164  and  _165
REMARK   64  A    between atoms: _170  and  _172
REMARK   65  A    between atoms: _172  and  _173
REMARK   66  A    between atoms: _176  and  _178
REMARK   67  A    between atoms: _178  and  _179
REMARK   68  A    between atoms: _178  and  _181
REMARK   69  A    between atoms: _181  and  _182
REMARK   70  A    between atoms: _184  and  _186
REMARK   71  A    between atoms: _186  and  _187
REMARK   72  A    between atoms: _190  and  _192
REMARK   73  A    between atoms: _192  and  _193
REMARK   74  A    between atoms: _192  and  _195
REMARK   75  A    between atoms: _195  and  _196
REMARK   76  A    between atoms: _206  and  _208
REMARK   77  A    between atoms: _208  and  _209
REMARK   78  A    between atoms: _208  and  _211
REMARK   79  A    between atoms: _211  and  _212
REMARK   80  A    between atoms: _215  and  _217
REMARK   81  A    between atoms: _217  and  _218
REMARK   82  A    between atoms: _217  and  _220
REMARK   83  A    between atoms: _220  and  _221
REMARK   84  A    between atoms: _226  and  _227
REMARK   85  A    between atoms: _229  and  _231
REMARK   86  A    between atoms: _231  and  _232
REMARK   87  A    between atoms: _231  and  _234
REMARK   88  A    between atoms: _234  and  _235
REMARK   89  A    between atoms: _235  and  _236
REMARK   90  A    between atoms: _236  and  _237
REMARK   91  A    between atoms: _246  and  _248
REMARK   92  A    between atoms: _248  and  _249
REMARK   93  A    between atoms: _248  and  _251
REMARK   94  A    between atoms: _251  and  _252
REMARK   95  A    between atoms: _255  and  _257
REMARK   96  A    between atoms: _257  and  _258
REMARK   97  A    between atoms: _257  and  _260
REMARK   98  A    between atoms: _260  and  _261
REMARK   99  A    between atoms: _261  and  _262
REMARK  100  A    between atoms: _262  and  _263
REMARK  101  A    between atoms: _263  and  _264
REMARK  102  A    between atoms: _268  and  _270
REMARK  103  A    between atoms: _270  and  _271
REMARK  104  A    between atoms: _270  and  _273
REMARK  105  A    between atoms: _273  and  _274
REMARK  106  A    between atoms: _274  and  _275
REMARK  107  A    between atoms: _280  and  _282
REMARK  108  A    between atoms: _282  and  _283
REMARK  109  A    between atoms: _282  and  _285
REMARK  110  A    between atoms: _285  and  _286
REMARK  111  A    between atoms: _289  and  _291
REMARK  112  A    between atoms: _291  and  _292
REMARK  113  A    between atoms: _291  and  _294
REMARK  114  A    between atoms: _294  and  _295
REMARK  115  A    between atoms: _295  and  _296
REMARK  116  A    between atoms: _299  and  _301
REMARK  117  A    between atoms: _301  and  _302
REMARK  118  A    between atoms: _301  and  _304
REMARK  119  A    between atoms: _304  and  _305
REMARK  120  A    between atoms: _308  and  _310
REMARK  121  A    between atoms: _310  and  _311
REMARK  122  A    between atoms: _310  and  _313
REMARK  123  A    between atoms: _313  and  _314
REMARK  124  A    between atoms: _317  and  _319
REMARK  125  A    between atoms: _319  and  _320
REMARK  126  A    between atoms: _319  and  _322
REMARK  127  A    between atoms: _325  and  _327
REMARK  128  A    between atoms: _327  and  _328
REMARK  129  A    between atoms: _327  and  _330
REMARK  130  A    between atoms: _333  and  _335
REMARK  131  A    between atoms: _335  and  _336
REMARK  132  A    between atoms: _339  and  _341
REMARK  133  A    between atoms: _341  and  _342
REMARK  134  A    between atoms: _341  and  _344
REMARK  135  A    between atoms: _344  and  _345
REMARK  136  A    between atoms: _350  and  _352
REMARK  137  A    between atoms: _352  and  _353
REMARK  138  A    between atoms: _352  and  _355
REMARK  139  A    between atoms: _355  and  _356
REMARK  140  A    between atoms: _360  and  ZN_772
REMARK  141  A    between atoms: _361  and  _363
REMARK  142  A    between atoms: _363  and  _364
REMARK  143  A    between atoms: _363  and  _366
REMARK  144  A    between atoms: _366  and  _367
REMARK  145  A    between atoms: _367  and  _368
REMARK  146  A    between atoms: _371  and  _373
REMARK  147  A    between atoms: _373  and  _374
REMARK  148  A    between atoms: _373  and  _376
REMARK  149  A    between atoms: _376  and  _377
REMARK  150  A    between atoms: _377  and  _378
REMARK  151  A    between atoms: _380  and  _382
REMARK  152  A    between atoms: _382  and  _383
REMARK  153  A    between atoms: _382  and  _385
REMARK  154  A    between atoms: _385  and  _386
REMARK  155  A    between atoms: _390  and  ZN_772
REMARK  156  A    between atoms: _391  and  _393
REMARK  157  A    between atoms: _393  and  _394
REMARK  158  A    between atoms: _393  and  _396
REMARK  159  A    between atoms: _396  and  _397
REMARK  160  A    between atoms: _400  and  _402
REMARK  161  A    between atoms: _402  and  _403
REMARK  162  A    between atoms: _402  and  _405
REMARK  163  A    between atoms: _405  and  _406
REMARK  164  A    between atoms: _411  and  _412
REMARK  165  A    between atoms: _414  and  _416
REMARK  166  A    between atoms: _416  and  _417
REMARK  167  A    between atoms: _416  and  _419
REMARK  168  A    between atoms: _419  and  _420
REMARK  169  A    between atoms: _426  and  _428
REMARK  170  A    between atoms: _428  and  _429
REMARK  171  A    between atoms: _428  and  _431
REMARK  172  A    between atoms: _431  and  _432
REMARK  173  A    between atoms: _437  and  _438
REMARK  174  A    between atoms: _440  and  _442
REMARK  175  A    between atoms: _442  and  _443
REMARK  176  A    between atoms: _442  and  _445
REMARK  177  A    between atoms: _445  and  _446
REMARK  178  A    between atoms: _446  and  _447
REMARK  179  A    between atoms: _447  and  _448
REMARK  180  A    between atoms: _457  and  _459
REMARK  181  A    between atoms: _459  and  _460
REMARK  182  A    between atoms: _459  and  _462
REMARK  183  A    between atoms: _462  and  _463
REMARK  184  A    between atoms: _463  and  _464
REMARK  185  A    between atoms: _467  and  _469
REMARK  186  A    between atoms: _469  and  _470
REMARK  187  A    between atoms: _472  and  _474
REMARK  188  A    between atoms: _474  and  _475
REMARK  189  A    between atoms: _474  and  _477
REMARK  190  A    between atoms: _477  and  _478
REMARK  191  A    between atoms: _484  and  _485
REMARK  192  A    between atoms: _490  and  _492
REMARK  193  A    between atoms: _492  and  _493
REMARK  194  A    between atoms: _495  and  _497
REMARK  195  A    between atoms: _497  and  _498
REMARK  196  A    between atoms: _497  and  _500
REMARK  197  A    between atoms: _500  and  _501
REMARK  198  A    between atoms: _507  and  _509
REMARK  199  A    between atoms: _509  and  _510
REMARK  200  A    between atoms: _509  and  _512
REMARK  201  A    between atoms: _512  and  _513
REMARK  202  A    between atoms: _518  and  _520
REMARK  203  A    between atoms: _520  and  _521
REMARK  204  A    between atoms: _520  and  _523
REMARK  205  A    between atoms: _523  and  _524
REMARK  206  A    between atoms: _524  and  _525
REMARK  207  A    between atoms: _525  and  _526
REMARK  208  A    between atoms: _526  and  ZN_772
REMARK  209  A    between atoms: _528  and  _530
REMARK  210  A    between atoms: _530  and  _531
REMARK  211  A    between atoms: _534  and  _536
REMARK  212  A    between atoms: _536  and  _537
REMARK  213  A    between atoms: _539  and  _541
REMARK  214  A    between atoms: _541  and  _542
REMARK  215  A    between atoms: _541  and  _544
REMARK  216  A    between atoms: _544  and  _545
REMARK  217  A    between atoms: _548  and  _550
REMARK  218  A    between atoms: _550  and  _551
REMARK  219  A    between atoms: _554  and  _556
REMARK  220  A    between atoms: _556  and  _557
REMARK  221  A    between atoms: _556  and  _559
REMARK  222  A    between atoms: _559  and  _560
REMARK  223  A    between atoms: _563  and  _565
REMARK  224  A    between atoms: _565  and  _566
REMARK  225  A    between atoms: _565  and  _568
REMARK  226  A    between atoms: _568  and  _569
REMARK  227  A    between atoms: _569  and  _570
REMARK  228  A    between atoms: _570  and  _571
REMARK  229  A    between atoms: _571  and  _572
REMARK  230  A    between atoms: _576  and  _578
REMARK  231  A    between atoms: _578  and  _579
REMARK  232  A    between atoms: _578  and  _581
REMARK  233  A    between atoms: _581  and  _582
REMARK  234  A    between atoms: _588  and  _590
REMARK  235  A    between atoms: _590  and  _591
REMARK  236  A    between atoms: _590  and  _593
REMARK  237  A    between atoms: _593  and  _594
REMARK  238  A    between atoms: _600  and  _602
REMARK  239  A    between atoms: _602  and  _603
REMARK  240  A    between atoms: _602  and  _605
REMARK  241  A    between atoms: _605  and  _606
REMARK  242  A    between atoms: _608  and  _610
REMARK  243  A    between atoms: _610  and  _611
REMARK  244  A    between atoms: _610  and  _613
REMARK  245  A    between atoms: _616  and  _618
REMARK  246  A    between atoms: _618  and  _619
REMARK  247  A    between atoms: _618  and  _621
REMARK  248  A    between atoms: _621  and  _622
REMARK  249  A    between atoms: _622  and  _623
REMARK  250  A    between atoms: _623  and  _624
REMARK  251  A    between atoms: _624  and  _625
REMARK  252  A    between atoms: _629  and  _631
REMARK  253  A    between atoms: _631  and  _632
REMARK  254  A    between atoms: _631  and  _634
REMARK  255  A    between atoms: _634  and  _635
REMARK  256  A    between atoms: _641  and  _643
REMARK  257  A    between atoms: _643  and  _644
REMARK  258  A    between atoms: _643  and  _646
REMARK  259  A    between atoms: _646  and  _647
REMARK  260  A    between atoms: _652  and  _654
REMARK  261  A    between atoms: _654  and  _655
REMARK  262  A    between atoms: _654  and  _657
REMARK  263  A    between atoms: _657  and  _658
REMARK  264  A    between atoms: _660  and  _662
REMARK  265  A    between atoms: _662  and  _663
REMARK  266  A    between atoms: _662  and  _665
REMARK  267  A    between atoms: _665  and  _666
REMARK  268  A    between atoms: _668  and  _670
REMARK  269  A    between atoms: _670  and  _671
REMARK  270  A    between atoms: _670  and  _673
REMARK  271  A    between atoms: _677  and  _678
REMARK  272  A    between atoms: _683  and  _685
REMARK  273  A    between atoms: _685  and  _686
REMARK  274  A    between atoms: _685  and  _688
REMARK  275  A    between atoms: _688  and  _689
REMARK  276  A    between atoms: _694  and  _695
REMARK  277  A    between atoms: _697  and  _699
REMARK  278  A    between atoms: _699  and  _700
REMARK  279  A    between atoms: _699  and  _702
REMARK  280  A    between atoms: _702  and  _703
REMARK  281  A    between atoms: _703  and  _704
REMARK  282  A    between atoms: _704  and  _705
REMARK  283  A    between atoms: _714  and  _716
REMARK  284  A    between atoms: _716  and  _717
REMARK  285  A    between atoms: _716  and  _719
REMARK  286  A    between atoms: _719  and  _720
REMARK  287  A    between atoms: _725  and  _726
REMARK  288  A    between atoms: _728  and  _730
REMARK  289  A    between atoms: _730  and  _731
REMARK  290  A    between atoms: _730  and  _733
REMARK  291  A    between atoms: _733  and  _734
REMARK  292  A    between atoms: _740  and  _742
REMARK  293  A    between atoms: _742  and  _743
REMARK  294  A    between atoms: _742  and  _745
REMARK  295  A    between atoms: _745  and  _746
REMARK  296  A    between atoms: _748  and  _750
REMARK  297  A    between atoms: _750  and  _751
REMARK  298  A    between atoms: _750  and  _753
REMARK  299  A    between atoms: _753  and  _754
REMARK  300  A    between atoms: _760  and  _762
REMARK  301  A    between atoms: _762  and  _763
REMARK  302  A    between atoms: _762  and  _765
REMARK  303  A    between atoms: _765  and  _766
REMARK  304  A    between atoms: _766  and  _767
REMARK                            x       y       z     vdW  Elec       q    Type
REMARK                         _______ _______ _______ _____ _____    ______ ____
ROOT
ATOM      1  O   HOH     1      21.755   0.796 -23.158  0.00  0.00    +0.000 OA
ENDROOT
TORSDOF 0
REMARK  Name = ../refined-set-2016/2xy9/2xy9_pocket.pdb
REMARK  304 active torsions:
REMARK  status: ('A' for Active; 'I' for Inactive)
REMARK    1  A    between atoms: _1  and  _3
REMARK    2  A    between atoms: _3  and  _4
REMARK    3  A    between atoms: _3  and  _6
REMARK    4  A    between atoms: _6  and  _7
REMARK    5  A    between atoms: _12  and  _14
REMARK    6  A    between atoms: _14  and  _15
REMARK    7  A    between atoms: _14  and  _17
REMARK    8  A    between atoms: _17  and  _18
REMARK    9  A    between atoms: _23  and  _25
REMARK   10  A    between atoms: _25  and  _26
REMARK   11  A    between atoms: _25  and  _28
REMARK   12  A    between atoms: _28  and  _29
REMARK   13  A    between atoms: _29  and  _30
REMARK   14  A    between atoms: _33  and  _35
REMARK   15  A    between atoms: _35  and  _36
REMARK   16  A    between atoms: _35  and  _38
REMARK   17  A    between atoms: _38  and  _39
REMARK   18  A    between atoms: _44  and  _45
REMARK   19  A    between atoms: _47  and  _49
REMARK   20  A    between atoms: _49  and  _50
REMARK   21  A    between atoms: _49  and  _52
REMARK   22  A    between atoms: _52  and  _53
REMARK   23  A    between atoms: _56  and  _58
REMARK   24  A    between atoms: _58  and  _59
REMARK   25  A    between atoms: _61  and  _63
REMARK   26  A    between atoms: _63  and  _64
REMARK   27  A    between atoms: _63  and  _66
REMARK   28  A    between atoms: _66  and  _67
REMARK   29  A    between atoms: _72  and  _74
REMARK   30  A    between atoms: _74  and  _75
REMARK   31  A    between atoms: _74  and  _77
REMARK   32  A    between atoms: _77  and  _78
REMARK   33  A    between atoms: _88  and  _90
REMARK   34  A    between atoms: _90  and  _91
REMARK   35  A    between atoms: _90  and  _93
REMARK   36  A    between atoms: _93  and  _94
REMARK   37  A    between atoms: _94  and  _95
REMARK   38  A    between atoms: _100  and  _102
REMARK   39  A    between atoms: _102  and  _103
REMARK   40  A    between atoms: _102  and  _105
REMARK   41  A    between atoms: _105  and  _106
REMARK   42  A    between atoms: _109  and  _111
REMARK   43  A    between atoms: _111  and  _112
REMARK   44  A    between atoms: _111  and  _114
REMARK   45  A    between atoms: _114  and  _115
REMARK   46  A    between atoms: _125  and  _127
REMARK   47  A    between atoms: _127  and  _128
REMARK   48  A    between atoms: _127  and  _130
REMARK   49  A    between atoms: _130  and  _131
REMARK   50  A    between atoms: _133  and  _135
REMARK   51  A    between atoms: _135  and  _136
REMARK   52  A    between atoms: _135  and  _138
REMARK   53  A    between atoms: _138  and  _139
REMARK   54  A    between atoms: _144  and  _146
REMARK   55  A    between atoms: _146  and  _147
REMARK   56  A    between atoms: _146  and  _149
REMARK   57  A    between atoms: _152  and  _154
REMARK   58  A    between atoms: _154  and  _155
REMARK   59  A    between atoms: _154  and  _157
REMARK   60  A    between atoms: _159  and  _161
REMARK   61  A    between atoms: _161  and  _162
REMARK   62  A    between atoms: _161  and  _164
REMARK   63  A    between atoms: _164  and  _165
REMARK   64  A    between atoms: _170  and  _172
REMARK   65  A    between atoms: _172  and  _173
REMARK   66  A    between atoms: _176  and  _178
REMARK   67  A    between atoms: _178  and  _179
REMARK   68  A    between atoms: _178  and  _181
REMARK   69  A    between atoms: _181  and  _182
REMARK   70  A    between atoms: _184  and  _186
REMARK   71  A    between atoms: _186  and  _187
REMARK   72  A    between atoms: _190  and  _192
REMARK   73  A    between atoms: _192  and  _193
REMARK   74  A    between atoms: _192  and  _195
REMARK   75  A    between atoms: _195  and  _196
REMARK   76  A    between atoms: _206  and  _208
REMARK   77  A    between atoms: _208  and  _209
REMARK   78  A    between atoms: _208  and  _211
REMARK   79  A    between atoms: _211  and  _212
REMARK   80  A    between atoms: _215  and  _217
REMARK   81  A    between atoms: _217  and  _218
REMARK   82  A    between atoms: _217  and  _220
REMARK   83  A    between atoms: _220  and  _221
REMARK   84  A    between atoms: _226  and  _227
REMARK   85  A    between atoms: _229  and  _231
REMARK   86  A    between atoms: _231  and  _232
REMARK   87  A    between atoms: _231  and  _234
REMARK   88  A    between atoms: _234  and  _235
REMARK   89  A    between atoms: _235  and  _236
REMARK   90  A    between atoms: _236  and  _237
REMARK   91  A    between atoms: _246  and  _248
REMARK   92  A    between atoms: _248  and  _249
REMARK   93  A    between atoms: _248  and  _251
REMARK   94  A    between atoms: _251  and  _252
REMARK   95  A    between atoms: _255  and  _257
REMARK   96  A    between atoms: _257  and  _258
REMARK   97  A    between atoms: _257  and  _260
REMARK   98  A    between atoms: _260  and  _261
REMARK   99  A    between atoms: _261  and  _262
REMARK  100  A    between atoms: _262  and  _263
REMARK  101  A    between atoms: _263  and  _264
REMARK  102  A    between atoms: _268  and  _270
REMARK  103  A    between atoms: _270  and  _271
REMARK  104  A    between atoms: _270  and  _273
REMARK  105  A    between atoms: _273  and  _274
REMARK  106  A    between atoms: _274  and  _275
REMARK  107  A    between atoms: _280  and  _282
REMARK  108  A    between atoms: _282  and  _283
REMARK  109  A    between atoms: _282  and  _285
REMARK  110  A    between atoms: _285  and  _286
REMARK  111  A    between atoms: _289  and  _291
REMARK  112  A    between atoms: _291  and  _292
REMARK  113  A    between atoms: _291  and  _294
REMARK  114  A    between atoms: _294  and  _295
REMARK  115  A    between atoms: _295  and  _296
REMARK  116  A    between atoms: _299  and  _301
REMARK  117  A    between atoms: _301  and  _302
REMARK  118  A    between atoms: _301  and  _304
REMARK  119  A    between atoms: _304  and  _305
REMARK  120  A    between atoms: _308  and  _310
REMARK  121  A    between atoms: _310  and  _311
REMARK  122  A    between atoms: _310  and  _313
REMARK  123  A    between atoms: _313  and  _314
REMARK  124  A    between atoms: _317  and  _319
REMARK  125  A    between atoms: _319  and  _320
REMARK  126  A    between atoms: _319  and  _322
REMARK  127  A    between atoms: _325  and  _327
REMARK  128  A    between atoms: _327  and  _328
REMARK  129  A    between atoms: _327  and  _330
REMARK  130  A    between atoms: _333  and  _335
REMARK  131  A    between atoms: _335  and  _336
REMARK  132  A    between atoms: _339  and  _341
REMARK  133  A    between atoms: _341  and  _342
REMARK  134  A    between atoms: _341  and  _344
REMARK  135  A    between atoms: _344  and  _345
REMARK  136  A    between atoms: _350  and  _352
REMARK  137  A    between atoms: _352  and  _353
REMARK  138  A    between atoms: _352  and  _355
REMARK  139  A    between atoms: _355  and  _356
REMARK  140  A    between atoms: _360  and  ZN_772
REMARK  141  A    between atoms: _361  and  _363
REMARK  142  A    between atoms: _363  and  _364
REMARK  143  A    between atoms: _363  and  _366
REMARK  144  A    between atoms: _366  and  _367
REMARK  145  A    between atoms: _367  and  _368
REMARK  146  A    between atoms: _371  and  _373
REMARK  147  A    between atoms: _373  and  _374
REMARK  148  A    between atoms: _373  and  _376
REMARK  149  A    between atoms: _376  and  _377
REMARK  150  A    between atoms: _377  and  _378
REMARK  151  A    between atoms: _380  and  _382
REMARK  152  A    between atoms: _382  and  _383
REMARK  153  A    between atoms: _382  and  _385
REMARK  154  A    between atoms: _385  and  _386
REMARK  155  A    between atoms: _390  and  ZN_772
REMARK  156  A    between atoms: _391  and  _393
REMARK  157  A    between atoms: _393  and  _394
REMARK  158  A    between atoms: _393  and  _396
REMARK  159  A    between atoms: _396  and  _397
REMARK  160  A    between atoms: _400  and  _402
REMARK  161  A    between atoms: _402  and  _403
REMARK  162  A    between atoms: _402  and  _405
REMARK  163  A    between atoms: _405  and  _406
REMARK  164  A    between atoms: _411  and  _412
REMARK  165  A    between atoms: _414  and  _416
REMARK  166  A    between atoms: _416  and  _417
REMARK  167  A    between atoms: _416  and  _419
REMARK  168  A    between atoms: _419  and  _420
REMARK  169  A    between atoms: _426  and  _428
REMARK  170  A    between atoms: _428  and  _429
REMARK  171  A    between atoms: _428  and  _431
REMARK  172  A    between atoms: _431  and  _432
REMARK  173  A    between atoms: _437  and  _438
REMARK  174  A    between atoms: _440  and  _442
REMARK  175  A    between atoms: _442  and  _443
REMARK  176  A    between atoms: _442  and  _445
REMARK  177  A    between atoms: _445  and  _446
REMARK  178  A    between atoms: _446  and  _447
REMARK  179  A    between atoms: _447  and  _448
REMARK  180  A    between atoms: _457  and  _459
REMARK  181  A    between atoms: _459  and  _460
REMARK  182  A    between atoms: _459  and  _462
REMARK  183  A    between atoms: _462  and  _463
REMARK  184  A    between atoms: _463  and  _464
REMARK  185  A    between atoms: _467  and  _469
REMARK  186  A    between atoms: _469  and  _470
REMARK  187  A    between atoms: _472  and  _474
REMARK  188  A    between atoms: _474  and  _475
REMARK  189  A    between atoms: _474  and  _477
REMARK  190  A    between atoms: _477  and  _478
REMARK  191  A    between atoms: _484  and  _485
REMARK  192  A    between atoms: _490  and  _492
REMARK  193  A    between atoms: _492  and  _493
REMARK  194  A    between atoms: _495  and  _497
REMARK  195  A    between atoms: _497  and  _498
REMARK  196  A    between atoms: _497  and  _500
REMARK  197  A    between atoms: _500  and  _501
REMARK  198  A    between atoms: _507  and  _509
REMARK  199  A    between atoms: _509  and  _510
REMARK  200  A    between atoms: _509  and  _512
REMARK  201  A    between atoms: _512  and  _513
REMARK  202  A    between atoms: _518  and  _520
REMARK  203  A    between atoms: _520  and  _521
REMARK  204  A    between atoms: _520  and  _523
REMARK  205  A    between atoms: _523  and  _524
REMARK  206  A    between atoms: _524  and  _525
REMARK  207  A    between atoms: _525  and  _526
REMARK  208  A    between atoms: _526  and  ZN_772
REMARK  209  A    between atoms: _528  and  _530
REMARK  210  A    between atoms: _530  and  _531
REMARK  211  A    between atoms: _534  and  _536
REMARK  212  A    between atoms: _536  and  _537
REMARK  213  A    between atoms: _539  and  _541
REMARK  214  A    between atoms: _541  and  _542
REMARK  215  A    between atoms: _541  and  _544
REMARK  216  A    between atoms: _544  and  _545
REMARK  217  A    between atoms: _548  and  _550
REMARK  218  A    between atoms: _550  and  _551
REMARK  219  A    between atoms: _554  and  _556
REMARK  220  A    between atoms: _556  and  _557
REMARK  221  A    between atoms: _556  and  _559
REMARK  222  A    between atoms: _559  and  _560
REMARK  223  A    between atoms: _563  and  _565
REMARK  224  A    between atoms: _565  and  _566
REMARK  225  A    between atoms: _565  and  _568
REMARK  226  A    between atoms: _568  and  _569
REMARK  227  A    between atoms: _569  and  _570
REMARK  228  A    between atoms: _570  and  _571
REMARK  229  A    between atoms: _571  and  _572
REMARK  230  A    between atoms: _576  and  _578
REMARK  231  A    between atoms: _578  and  _579
REMARK  232  A    between atoms: _578  and  _581
REMARK  233  A    between atoms: _581  and  _582
REMARK  234  A    between atoms: _588  and  _590
REMARK  235  A    between atoms: _590  and  _591
REMARK  236  A    between atoms: _590  and  _593
REMARK  237  A    between atoms: _593  and  _594
REMARK  238  A    between atoms: _600  and  _602
REMARK  239  A    between atoms: _602  and  _603
REMARK  240  A    between atoms: _602  and  _605
REMARK  241  A    between atoms: _605  and  _606
REMARK  242  A    between atoms: _608  and  _610
REMARK  243  A    between atoms: _610  and  _611
REMARK  244  A    between atoms: _610  and  _613
REMARK  245  A    between atoms: _616  and  _618
REMARK  246  A    between atoms: _618  and  _619
REMARK  247  A    between atoms: _618  and  _621
REMARK  248  A    between atoms: _621  and  _622
REMARK  249  A    between atoms: _622  and  _623
REMARK  250  A    between atoms: _623  and  _624
REMARK  251  A    between atoms: _624  and  _625
REMARK  252  A    between atoms: _629  and  _631
REMARK  253  A    between atoms: _631  and  _632
REMARK  254  A    between atoms: _631  and  _634
REMARK  255  A    between atoms: _634  and  _635
REMARK  256  A    between atoms: _641  and  _643
REMARK  257  A    between atoms: _643  and  _644
REMARK  258  A    between atoms: _643  and  _646
REMARK  259  A    between atoms: _646  and  _647
REMARK  260  A    between atoms: _652  and  _654
REMARK  261  A    between atoms: _654  and  _655
REMARK  262  A    between atoms: _654  and  _657
REMARK  263  A    between atoms: _657  and  _658
REMARK  264  A    between atoms: _660  and  _662
REMARK  265  A    between atoms: _662  and  _663
REMARK  266  A    between atoms: _662  and  _665
REMARK  267  A    between atoms: _665  and  _666
REMARK  268  A    between atoms: _668  and  _670
REMARK  269  A    between atoms: _670  and  _671
REMARK  270  A    between atoms: _670  and  _673
REMARK  271  A    between atoms: _677  and  _678
REMARK  272  A    between atoms: _683  and  _685
REMARK  273  A    between atoms: _685  and  _686
REMARK  274  A    between atoms: _685  and  _688
REMARK  275  A    between atoms: _688  and  _689
REMARK  276  A    between atoms: _694  and  _695
REMARK  277  A    between atoms: _697  and  _699
REMARK  278  A    between atoms: _699  and  _700
REMARK  279  A    between atoms: _699  and  _702
REMARK  280  A    between atoms: _702  and  _703
REMARK  281  A    between atoms: _703  and  _704
REMARK  282  A    between atoms: _704  and  _705
REMARK  283  A    between atoms: _714  and  _716
REMARK  284  A    between atoms: _716  and  _717
REMARK  285  A    between atoms: _716  and  _719
REMARK  286  A    between atoms: _719  and  _720
REMARK  287  A    between atoms: _725  and  _726
REMARK  288  A    between atoms: _728  and  _730
REMARK  289  A    between atoms: _730  and  _731
REMARK  290  A    between atoms: _730  and  _733
REMARK  291  A    between atoms: _733  and  _734
REMARK  292  A    between atoms: _740  and  _742
REMARK  293  A    between atoms: _742  and  _743
REMARK  294  A    between atoms: _742  and  _745
REMARK  295  A    between atoms: _745  and  _746
REMARK  296  A    between atoms: _748  and  _750
REMARK  297  A    between atoms: _750  and  _751
REMARK  298  A    between atoms: _750  and  _753
REMARK  299  A    between atoms: _753  and  _754
REMARK  300  A    between atoms: _760  and  _762
REMARK  301  A    between atoms: _762  and  _763
REMARK  302  A    between atoms: _762  and  _765
REMARK  303  A    between atoms: _765  and  _766
REMARK  304  A    between atoms: _766  and  _767
REMARK                            x       y       z     vdW  Elec       q    Type
REMARK                         _______ _______ _______ _____ _____    ______ ____
ROOT
ATOM      1  O   HOH     1      19.892  -4.579 -28.319  0.00  0.00    +0.000 OA
ENDROOT
TORSDOF 0
REMARK  Name = ../refined-set-2016/2xy9/2xy9_pocket.pdb
REMARK  304 active torsions:
REMARK  status: ('A' for Active; 'I' for Inactive)
REMARK    1  A    between atoms: _1  and  _3
REMARK    2  A    between atoms: _3  and  _4
REMARK    3  A    between atoms: _3  and  _6
REMARK    4  A    between atoms: _6  and  _7
REMARK    5  A    between atoms: _12  and  _14
REMARK    6  A    between atoms: _14  and  _15
REMARK    7  A    between atoms: _14  and  _17
REMARK    8  A    between atoms: _17  and  _18
REMARK    9  A    between atoms: _23  and  _25
REMARK   10  A    between atoms: _25  and  _26
REMARK   11  A    between atoms: _25  and  _28
REMARK   12  A    between atoms: _28  and  _29
REMARK   13  A    between atoms: _29  and  _30
REMARK   14  A    between atoms: _33  and  _35
REMARK   15  A    between atoms: _35  and  _36
REMARK   16  A    between atoms: _35  and  _38
REMARK   17  A    between atoms: _38  and  _39
REMARK   18  A    between atoms: _44  and  _45
REMARK   19  A    between atoms: _47  and  _49
REMARK   20  A    between atoms: _49  and  _50
REMARK   21  A    between atoms: _49  and  _52
REMARK   22  A    between atoms: _52  and  _53
REMARK   23  A    between atoms: _56  and  _58
REMARK   24  A    between atoms: _58  and  _59
REMARK   25  A    between atoms: _61  and  _63
REMARK   26  A    between atoms: _63  and  _64
REMARK   27  A    between atoms: _63  and  _66
REMARK   28  A    between atoms: _66  and  _67
REMARK   29  A    between atoms: _72  and  _74
REMARK   30  A    between atoms: _74  and  _75
REMARK   31  A    between atoms: _74  and  _77
REMARK   32  A    between atoms: _77  and  _78
REMARK   33  A    between atoms: _88  and  _90
REMARK   34  A    between atoms: _90  and  _91
REMARK   35  A    between atoms: _90  and  _93
REMARK   36  A    between atoms: _93  and  _94
REMARK   37  A    between atoms: _94  and  _95
REMARK   38  A    between atoms: _100  and  _102
REMARK   39  A    between atoms: _102  and  _103
REMARK   40  A    between atoms: _102  and  _105
REMARK   41  A    between atoms: _105  and  _106
REMARK   42  A    between atoms: _109  and  _111
REMARK   43  A    between atoms: _111  and  _112
REMARK   44  A    between atoms: _111  and  _114
REMARK   45  A    between atoms: _114  and  _115
REMARK   46  A    between atoms: _125  and  _127
REMARK   47  A    between atoms: _127  and  _128
REMARK   48  A    between atoms: _127  and  _130
REMARK   49  A    between atoms: _130  and  _131
REMARK   50  A    between atoms: _133  and  _135
REMARK   51  A    between atoms: _135  and  _136
REMARK   52  A    between atoms: _135  and  _138
REMARK   53  A    between atoms: _138  and  _139
REMARK   54  A    between atoms: _144  and  _146
REMARK   55  A    between atoms: _146  and  _147
REMARK   56  A    between atoms: _146  and  _149
REMARK   57  A    between atoms: _152  and  _154
REMARK   58  A    between atoms: _154  and  _155
REMARK   59  A    between atoms: _154  and  _157
REMARK   60  A    between atoms: _159  and  _161
REMARK   61  A    between atoms: _161  and  _162
REMARK   62  A    between atoms: _161  and  _164
REMARK   63  A    between atoms: _164  and  _165
REMARK   64  A    between atoms: _170  and  _172
REMARK   65  A    between atoms: _172  and  _173
REMARK   66  A    between atoms: _176  and  _178
REMARK   67  A    between atoms: _178  and  _179
REMARK   68  A    between atoms: _178  and  _181
REMARK   69  A    between atoms: _181  and  _182
REMARK   70  A    between atoms: _184  and  _186
REMARK   71  A    between atoms: _186  and  _187
REMARK   72  A    between atoms: _190  and  _192
REMARK   73  A    between atoms: _192  and  _193
REMARK   74  A    between atoms: _192  and  _195
REMARK   75  A    between atoms: _195  and  _196
REMARK   76  A    between atoms: _206  and  _208
REMARK   77  A    between atoms: _208  and  _209
REMARK   78  A    between atoms: _208  and  _211
REMARK   79  A    between atoms: _211  and  _212
REMARK   80  A    between atoms: _215  and  _217
REMARK   81  A    between atoms: _217  and  _218
REMARK   82  A    between atoms: _217  and  _220
REMARK   83  A    between atoms: _220  and  _221
REMARK   84  A    between atoms: _226  and  _227
REMARK   85  A    between atoms: _229  and  _231
REMARK   86  A    between atoms: _231  and  _232
REMARK   87  A    between atoms: _231  and  _234
REMARK   88  A    between atoms: _234  and  _235
REMARK   89  A    between atoms: _235  and  _236
REMARK   90  A    between atoms: _236  and  _237
REMARK   91  A    between atoms: _246  and  _248
REMARK   92  A    between atoms: _248  and  _249
REMARK   93  A    between atoms: _248  and  _251
REMARK   94  A    between atoms: _251  and  _252
REMARK   95  A    between atoms: _255  and  _257
REMARK   96  A    between atoms: _257  and  _258
REMARK   97  A    between atoms: _257  and  _260
REMARK   98  A    between atoms: _260  and  _261
REMARK   99  A    between atoms: _261  and  _262
REMARK  100  A    between atoms: _262  and  _263
REMARK  101  A    between atoms: _263  and  _264
REMARK  102  A    between atoms: _268  and  _270
REMARK  103  A    between atoms: _270  and  _271
REMARK  104  A    between atoms: _270  and  _273
REMARK  105  A    between atoms: _273  and  _274
REMARK  106  A    between atoms: _274  and  _275
REMARK  107  A    between atoms: _280  and  _282
REMARK  108  A    between atoms: _282  and  _283
REMARK  109  A    between atoms: _282  and  _285
REMARK  110  A    between atoms: _285  and  _286
REMARK  111  A    between atoms: _289  and  _291
REMARK  112  A    between atoms: _291  and  _292
REMARK  113  A    between atoms: _291  and  _294
REMARK  114  A    between atoms: _294  and  _295
REMARK  115  A    between atoms: _295  and  _296
REMARK  116  A    between atoms: _299  and  _301
REMARK  117  A    between atoms: _301  and  _302
REMARK  118  A    between atoms: _301  and  _304
REMARK  119  A    between atoms: _304  and  _305
REMARK  120  A    between atoms: _308  and  _310
REMARK  121  A    between atoms: _310  and  _311
REMARK  122  A    between atoms: _310  and  _313
REMARK  123  A    between atoms: _313  and  _314
REMARK  124  A    between atoms: _317  and  _319
REMARK  125  A    between atoms: _319  and  _320
REMARK  126  A    between atoms: _319  and  _322
REMARK  127  A    between atoms: _325  and  _327
REMARK  128  A    between atoms: _327  and  _328
REMARK  129  A    between atoms: _327  and  _330
REMARK  130  A    between atoms: _333  and  _335
REMARK  131  A    between atoms: _335  and  _336
REMARK  132  A    between atoms: _339  and  _341
REMARK  133  A    between atoms: _341  and  _342
REMARK  134  A    between atoms: _341  and  _344
REMARK  135  A    between atoms: _344  and  _345
REMARK  136  A    between atoms: _350  and  _352
REMARK  137  A    between atoms: _352  and  _353
REMARK  138  A    between atoms: _352  and  _355
REMARK  139  A    between atoms: _355  and  _356
REMARK  140  A    between atoms: _360  and  ZN_772
REMARK  141  A    between atoms: _361  and  _363
REMARK  142  A    between atoms: _363  and  _364
REMARK  143  A    between atoms: _363  and  _366
REMARK  144  A    between atoms: _366  and  _367
REMARK  145  A    between atoms: _367  and  _368
REMARK  146  A    between atoms: _371  and  _373
REMARK  147  A    between atoms: _373  and  _374
REMARK  148  A    between atoms: _373  and  _376
REMARK  149  A    between atoms: _376  and  _377
REMARK  150  A    between atoms: _377  and  _378
REMARK  151  A    between atoms: _380  and  _382
REMARK  152  A    between atoms: _382  and  _383
REMARK  153  A    between atoms: _382  and  _385
REMARK  154  A    between atoms: _385  and  _386
REMARK  155  A    between atoms: _390  and  ZN_772
REMARK  156  A    between atoms: _391  and  _393
REMARK  157  A    between atoms: _393  and  _394
REMARK  158  A    between atoms: _393  and  _396
REMARK  159  A    between atoms: _396  and  _397
REMARK  160  A    between atoms: _400  and  _402
REMARK  161  A    between atoms: _402  and  _403
REMARK  162  A    between atoms: _402  and  _405
REMARK  163  A    between atoms: _405  and  _406
REMARK  164  A    between atoms: _411  and  _412
REMARK  165  A    between atoms: _414  and  _416
REMARK  166  A    between atoms: _416  and  _417
REMARK  167  A    between atoms: _416  and  _419
REMARK  168  A    between atoms: _419  and  _420
REMARK  169  A    between atoms: _426  and  _428
REMARK  170  A    between atoms: _428  and  _429
REMARK  171  A    between atoms: _428  and  _431
REMARK  172  A    between atoms: _431  and  _432
REMARK  173  A    between atoms: _437  and  _438
REMARK  174  A    between atoms: _440  and  _442
REMARK  175  A    between atoms: _442  and  _443
REMARK  176  A    between atoms: _442  and  _445
REMARK  177  A    between atoms: _445  and  _446
REMARK  178  A    between atoms: _446  and  _447
REMARK  179  A    between atoms: _447  and  _448
REMARK  180  A    between atoms: _457  and  _459
REMARK  181  A    between atoms: _459  and  _460
REMARK  182  A    between atoms: _459  and  _462
REMARK  183  A    between atoms: _462  and  _463
REMARK  184  A    between atoms: _463  and  _464
REMARK  185  A    between atoms: _467  and  _469
REMARK  186  A    between atoms: _469  and  _470
REMARK  187  A    between atoms: _472  and  _474
REMARK  188  A    between atoms: _474  and  _475
REMARK  189  A    between atoms: _474  and  _477
REMARK  190  A    between atoms: _477  and  _478
REMARK  191  A    between atoms: _484  and  _485
REMARK  192  A    between atoms: _490  and  _492
REMARK  193  A    between atoms: _492  and  _493
REMARK  194  A    between atoms: _495  and  _497
REMARK  195  A    between atoms: _497  and  _498
REMARK  196  A    between atoms: _497  and  _500
REMARK  197  A    between atoms: _500  and  _501
REMARK  198  A    between atoms: _507  and  _509
REMARK  199  A    between atoms: _509  and  _510
REMARK  200  A    between atoms: _509  and  _512
REMARK  201  A    between atoms: _512  and  _513
REMARK  202  A    between atoms: _518  and  _520
REMARK  203  A    between atoms: _520  and  _521
REMARK  204  A    between atoms: _520  and  _523
REMARK  205  A    between atoms: _523  and  _524
REMARK  206  A    between atoms: _524  and  _525
REMARK  207  A    between atoms: _525  and  _526
REMARK  208  A    between atoms: _526  and  ZN_772
REMARK  209  A    between atoms: _528  and  _530
REMARK  210  A    between atoms: _530  and  _531
REMARK  211  A    between atoms: _534  and  _536
REMARK  212  A    between atoms: _536  and  _537
REMARK  213  A    between atoms: _539  and  _541
REMARK  214  A    between atoms: _541  and  _542
REMARK  215  A    between atoms: _541  and  _544
REMARK  216  A    between atoms: _544  and  _545
REMARK  217  A    between atoms: _548  and  _550
REMARK  218  A    between atoms: _550  and  _551
REMARK  219  A    between atoms: _554  and  _556
REMARK  220  A    between atoms: _556  and  _557
REMARK  221  A    between atoms: _556  and  _559
REMARK  222  A    between atoms: _559  and  _560
REMARK  223  A    between atoms: _563  and  _565
REMARK  224  A    between atoms: _565  and  _566
REMARK  225  A    between atoms: _565  and  _568
REMARK  226  A    between atoms: _568  and  _569
REMARK  227  A    between atoms: _569  and  _570
REMARK  228  A    between atoms: _570  and  _571
REMARK  229  A    between atoms: _571  and  _572
REMARK  230  A    between atoms: _576  and  _578
REMARK  231  A    between atoms: _578  and  _579
REMARK  232  A    between atoms: _578  and  _581
REMARK  233  A    between atoms: _581  and  _582
REMARK  234  A    between atoms: _588  and  _590
REMARK  235  A    between atoms: _590  and  _591
REMARK  236  A    between atoms: _590  and  _593
REMARK  237  A    between atoms: _593  and  _594
REMARK  238  A    between atoms: _600  and  _602
REMARK  239  A    between atoms: _602  and  _603
REMARK  240  A    between atoms: _602  and  _605
REMARK  241  A    between atoms: _605  and  _606
REMARK  242  A    between atoms: _608  and  _610
REMARK  243  A    between atoms: _610  and  _611
REMARK  244  A    between atoms: _610  and  _613
REMARK  245  A    between atoms: _616  and  _618
REMARK  246  A    between atoms: _618  and  _619
REMARK  247  A    between atoms: _618  and  _621
REMARK  248  A    between atoms: _621  and  _622
REMARK  249  A    between atoms: _622  and  _623
REMARK  250  A    between atoms: _623  and  _624
REMARK  251  A    between atoms: _624  and  _625
REMARK  252  A    between atoms: _629  and  _631
REMARK  253  A    between atoms: _631  and  _632
REMARK  254  A    between atoms: _631  and  _634
REMARK  255  A    between atoms: _634  and  _635
REMARK  256  A    between atoms: _641  and  _643
REMARK  257  A    between atoms: _643  and  _644
REMARK  258  A    between atoms: _643  and  _646
REMARK  259  A    between atoms: _646  and  _647
REMARK  260  A    between atoms: _652  and  _654
REMARK  261  A    between atoms: _654  and  _655
REMARK  262  A    between atoms: _654  and  _657
REMARK  263  A    between atoms: _657  and  _658
REMARK  264  A    between atoms: _660  and  _662
REMARK  265  A    between atoms: _662  and  _663
REMARK  266  A    between atoms: _662  and  _665
REMARK  267  A    between atoms: _665  and  _666
REMARK  268  A    between atoms: _668  and  _670
REMARK  269  A    between atoms: _670  and  _671
REMARK  270  A    between atoms: _670  and  _673
REMARK  271  A    between atoms: _677  and  _678
REMARK  272  A    between atoms: _683  and  _685
REMARK  273  A    between atoms: _685  and  _686
REMARK  274  A    between atoms: _685  and  _688
REMARK  275  A    between atoms: _688  and  _689
REMARK  276  A    between atoms: _694  and  _695
REMARK  277  A    between atoms: _697  and  _699
REMARK  278  A    between atoms: _699  and  _700
REMARK  279  A    between atoms: _699  and  _702
REMARK  280  A    between atoms: _702  and  _703
REMARK  281  A    between atoms: _703  and  _704
REMARK  282  A    between atoms: _704  and  _705
REMARK  283  A    between atoms: _714  and  _716
REMARK  284  A    between atoms: _716  and  _717
REMARK  285  A    between atoms: _716  and  _719
REMARK  286  A    between atoms: _719  and  _720
REMARK  287  A    between atoms: _725  and  _726
REMARK  288  A    between atoms: _728  and  _730
REMARK  289  A    between atoms: _730  and  _731
REMARK  290  A    between atoms: _730  and  _733
REMARK  291  A    between atoms: _733  and  _734
REMARK  292  A    between atoms: _740  and  _742
REMARK  293  A    between atoms: _742  and  _743
REMARK  294  A    between atoms: _742  and  _745
REMARK  295  A    between atoms: _745  and  _746
REMARK  296  A    between atoms: _748  and  _750
REMARK  297  A    between atoms: _750  and  _751
REMARK  298  A    between atoms: _750  and  _753
REMARK  299  A    between atoms: _753  and  _754
REMARK  300  A    between atoms: _760  and  _762
REMARK  301  A    between atoms: _762  and  _763
REMARK  302  A    between atoms: _762  and  _765
REMARK  303  A    between atoms: _765  and  _766
REMARK  304  A    between atoms: _766  and  _767
REMARK                            x       y       z     vdW  Elec       q    Type
REMARK                         _______ _______ _______ _____ _____    ______ ____
ROOT
ATOM      1  O   HOH     1      23.640  -5.152 -33.135  0.00  0.00    +0.000 OA
ENDROOT
TORSDOF 0
REMARK  Name = ../refined-set-2016/2xy9/2xy9_pocket.pdb
REMARK  304 active torsions:
REMARK  status: ('A' for Active; 'I' for Inactive)
REMARK    1  A    between atoms: _1  and  _3
REMARK    2  A    between atoms: _3  and  _4
REMARK    3  A    between atoms: _3  and  _6
REMARK    4  A    between atoms: _6  and  _7
REMARK    5  A    between atoms: _12  and  _14
REMARK    6  A    between atoms: _14  and  _15
REMARK    7  A    between atoms: _14  and  _17
REMARK    8  A    between atoms: _17  and  _18
REMARK    9  A    between atoms: _23  and  _25
REMARK   10  A    between atoms: _25  and  _26
REMARK   11  A    between atoms: _25  and  _28
REMARK   12  A    between atoms: _28  and  _29
REMARK   13  A    between atoms: _29  and  _30
REMARK   14  A    between atoms: _33  and  _35
REMARK   15  A    between atoms: _35  and  _36
REMARK   16  A    between atoms: _35  and  _38
REMARK   17  A    between atoms: _38  and  _39
REMARK   18  A    between atoms: _44  and  _45
REMARK   19  A    between atoms: _47  and  _49
REMARK   20  A    between atoms: _49  and  _50
REMARK   21  A    between atoms: _49  and  _52
REMARK   22  A    between atoms: _52  and  _53
REMARK   23  A    between atoms: _56  and  _58
REMARK   24  A    between atoms: _58  and  _59
REMARK   25  A    between atoms: _61  and  _63
REMARK   26  A    between atoms: _63  and  _64
REMARK   27  A    between atoms: _63  and  _66
REMARK   28  A    between atoms: _66  and  _67
REMARK   29  A    between atoms: _72  and  _74
REMARK   30  A    between atoms: _74  and  _75
REMARK   31  A    between atoms: _74  and  _77
REMARK   32  A    between atoms: _77  and  _78
REMARK   33  A    between atoms: _88  and  _90
REMARK   34  A    between atoms: _90  and  _91
REMARK   35  A    between atoms: _90  and  _93
REMARK   36  A    between atoms: _93  and  _94
REMARK   37  A    between atoms: _94  and  _95
REMARK   38  A    between atoms: _100  and  _102
REMARK   39  A    between atoms: _102  and  _103
REMARK   40  A    between atoms: _102  and  _105
REMARK   41  A    between atoms: _105  and  _106
REMARK   42  A    between atoms: _109  and  _111
REMARK   43  A    between atoms: _111  and  _112
REMARK   44  A    between atoms: _111  and  _114
REMARK   45  A    between atoms: _114  and  _115
REMARK   46  A    between atoms: _125  and  _127
REMARK   47  A    between atoms: _127  and  _128
REMARK   48  A    between atoms: _127  and  _130
REMARK   49  A    between atoms: _130  and  _131
REMARK   50  A    between atoms: _133  and  _135
REMARK   51  A    between atoms: _135  and  _136
REMARK   52  A    between atoms: _135  and  _138
REMARK   53  A    between atoms: _138  and  _139
REMARK   54  A    between atoms: _144  and  _146
REMARK   55  A    between atoms: _146  and  _147
REMARK   56  A    between atoms: _146  and  _149
REMARK   57  A    between atoms: _152  and  _154
REMARK   58  A    between atoms: _154  and  _155
REMARK   59  A    between atoms: _154  and  _157
REMARK   60  A    between atoms: _159  and  _161
REMARK   61  A    between atoms: _161  and  _162
REMARK   62  A    between atoms: _161  and  _164
REMARK   63  A    between atoms: _164  and  _165
REMARK   64  A    between atoms: _170  and  _172
REMARK   65  A    between atoms: _172  and  _173
REMARK   66  A    between atoms: _176  and  _178
REMARK   67  A    between atoms: _178  and  _179
REMARK   68  A    between atoms: _178  and  _181
REMARK   69  A    between atoms: _181  and  _182
REMARK   70  A    between atoms: _184  and  _186
REMARK   71  A    between atoms: _186  and  _187
REMARK   72  A    between atoms: _190  and  _192
REMARK   73  A    between atoms: _192  and  _193
REMARK   74  A    between atoms: _192  and  _195
REMARK   75  A    between atoms: _195  and  _196
REMARK   76  A    between atoms: _206  and  _208
REMARK   77  A    between atoms: _208  and  _209
REMARK   78  A    between atoms: _208  and  _211
REMARK   79  A    between atoms: _211  and  _212
REMARK   80  A    between atoms: _215  and  _217
REMARK   81  A    between atoms: _217  and  _218
REMARK   82  A    between atoms: _217  and  _220
REMARK   83  A    between atoms: _220  and  _221
REMARK   84  A    between atoms: _226  and  _227
REMARK   85  A    between atoms: _229  and  _231
REMARK   86  A    between atoms: _231  and  _232
REMARK   87  A    between atoms: _231  and  _234
REMARK   88  A    between atoms: _234  and  _235
REMARK   89  A    between atoms: _235  and  _236
REMARK   90  A    between atoms: _236  and  _237
REMARK   91  A    between atoms: _246  and  _248
REMARK   92  A    between atoms: _248  and  _249
REMARK   93  A    between atoms: _248  and  _251
REMARK   94  A    between atoms: _251  and  _252
REMARK   95  A    between atoms: _255  and  _257
REMARK   96  A    between atoms: _257  and  _258
REMARK   97  A    between atoms: _257  and  _260
REMARK   98  A    between atoms: _260  and  _261
REMARK   99  A    between atoms: _261  and  _262
REMARK  100  A    between atoms: _262  and  _263
REMARK  101  A    between atoms: _263  and  _264
REMARK  102  A    between atoms: _268  and  _270
REMARK  103  A    between atoms: _270  and  _271
REMARK  104  A    between atoms: _270  and  _273
REMARK  105  A    between atoms: _273  and  _274
REMARK  106  A    between atoms: _274  and  _275
REMARK  107  A    between atoms: _280  and  _282
REMARK  108  A    between atoms: _282  and  _283
REMARK  109  A    between atoms: _282  and  _285
REMARK  110  A    between atoms: _285  and  _286
REMARK  111  A    between atoms: _289  and  _291
REMARK  112  A    between atoms: _291  and  _292
REMARK  113  A    between atoms: _291  and  _294
REMARK  114  A    between atoms: _294  and  _295
REMARK  115  A    between atoms: _295  and  _296
REMARK  116  A    between atoms: _299  and  _301
REMARK  117  A    between atoms: _301  and  _302
REMARK  118  A    between atoms: _301  and  _304
REMARK  119  A    between atoms: _304  and  _305
REMARK  120  A    between atoms: _308  and  _310
REMARK  121  A    between atoms: _310  and  _311
REMARK  122  A    between atoms: _310  and  _313
REMARK  123  A    between atoms: _313  and  _314
REMARK  124  A    between atoms: _317  and  _319
REMARK  125  A    between atoms: _319  and  _320
REMARK  126  A    between atoms: _319  and  _322
REMARK  127  A    between atoms: _325  and  _327
REMARK  128  A    between atoms: _327  and  _328
REMARK  129  A    between atoms: _327  and  _330
REMARK  130  A    between atoms: _333  and  _335
REMARK  131  A    between atoms: _335  and  _336
REMARK  132  A    between atoms: _339  and  _341
REMARK  133  A    between atoms: _341  and  _342
REMARK  134  A    between atoms: _341  and  _344
REMARK  135  A    between atoms: _344  and  _345
REMARK  136  A    between atoms: _350  and  _352
REMARK  137  A    between atoms: _352  and  _353
REMARK  138  A    between atoms: _352  and  _355
REMARK  139  A    between atoms: _355  and  _356
REMARK  140  A    between atoms: _360  and  ZN_772
REMARK  141  A    between atoms: _361  and  _363
REMARK  142  A    between atoms: _363  and  _364
REMARK  143  A    between atoms: _363  and  _366
REMARK  144  A    between atoms: _366  and  _367
REMARK  145  A    between atoms: _367  and  _368
REMARK  146  A    between atoms: _371  and  _373
REMARK  147  A    between atoms: _373  and  _374
REMARK  148  A    between atoms: _373  and  _376
REMARK  149  A    between atoms: _376  and  _377
REMARK  150  A    between atoms: _377  and  _378
REMARK  151  A    between atoms: _380  and  _382
REMARK  152  A    between atoms: _382  and  _383
REMARK  153  A    between atoms: _382  and  _385
REMARK  154  A    between atoms: _385  and  _386
REMARK  155  A    between atoms: _390  and  ZN_772
REMARK  156  A    between atoms: _391  and  _393
REMARK  157  A    between atoms: _393  and  _394
REMARK  158  A    between atoms: _393  and  _396
REMARK  159  A    between atoms: _396  and  _397
REMARK  160  A    between atoms: _400  and  _402
REMARK  161  A    between atoms: _402  and  _403
REMARK  162  A    between atoms: _402  and  _405
REMARK  163  A    between atoms: _405  and  _406
REMARK  164  A    between atoms: _411  and  _412
REMARK  165  A    between atoms: _414  and  _416
REMARK  166  A    between atoms: _416  and  _417
REMARK  167  A    between atoms: _416  and  _419
REMARK  168  A    between atoms: _419  and  _420
REMARK  169  A    between atoms: _426  and  _428
REMARK  170  A    between atoms: _428  and  _429
REMARK  171  A    between atoms: _428  and  _431
REMARK  172  A    between atoms: _431  and  _432
REMARK  173  A    between atoms: _437  and  _438
REMARK  174  A    between atoms: _440  and  _442
REMARK  175  A    between atoms: _442  and  _443
REMARK  176  A    between atoms: _442  and  _445
REMARK  177  A    between atoms: _445  and  _446
REMARK  178  A    between atoms: _446  and  _447
REMARK  179  A    between atoms: _447  and  _448
REMARK  180  A    between atoms: _457  and  _459
REMARK  181  A    between atoms: _459  and  _460
REMARK  182  A    between atoms: _459  and  _462
REMARK  183  A    between atoms: _462  and  _463
REMARK  184  A    between atoms: _463  and  _464
REMARK  185  A    between atoms: _467  and  _469
REMARK  186  A    between atoms: _469  and  _470
REMARK  187  A    between atoms: _472  and  _474
REMARK  188  A    between atoms: _474  and  _475
REMARK  189  A    between atoms: _474  and  _477
REMARK  190  A    between atoms: _477  and  _478
REMARK  191  A    between atoms: _484  and  _485
REMARK  192  A    between atoms: _490  and  _492
REMARK  193  A    between atoms: _492  and  _493
REMARK  194  A    between atoms: _495  and  _497
REMARK  195  A    between atoms: _497  and  _498
REMARK  196  A    between atoms: _497  and  _500
REMARK  197  A    between atoms: _500  and  _501
REMARK  198  A    between atoms: _507  and  _509
REMARK  199  A    between atoms: _509  and  _510
REMARK  200  A    between atoms: _509  and  _512
REMARK  201  A    between atoms: _512  and  _513
REMARK  202  A    between atoms: _518  and  _520
REMARK  203  A    between atoms: _520  and  _521
REMARK  204  A    between atoms: _520  and  _523
REMARK  205  A    between atoms: _523  and  _524
REMARK  206  A    between atoms: _524  and  _525
REMARK  207  A    between atoms: _525  and  _526
REMARK  208  A    between atoms: _526  and  ZN_772
REMARK  209  A    between atoms: _528  and  _530
REMARK  210  A    between atoms: _530  and  _531
REMARK  211  A    between atoms: _534  and  _536
REMARK  212  A    between atoms: _536  and  _537
REMARK  213  A    between atoms: _539  and  _541
REMARK  214  A    between atoms: _541  and  _542
REMARK  215  A    between atoms: _541  and  _544
REMARK  216  A    between atoms: _544  and  _545
REMARK  217  A    between atoms: _548  and  _550
REMARK  218  A    between atoms: _550  and  _551
REMARK  219  A    between atoms: _554  and  _556
REMARK  220  A    between atoms: _556  and  _557
REMARK  221  A    between atoms: _556  and  _559
REMARK  222  A    between atoms: _559  and  _560
REMARK  223  A    between atoms: _563  and  _565
REMARK  224  A    between atoms: _565  and  _566
REMARK  225  A    between atoms: _565  and  _568
REMARK  226  A    between atoms: _568  and  _569
REMARK  227  A    between atoms: _569  and  _570
REMARK  228  A    between atoms: _570  and  _571
REMARK  229  A    between atoms: _571  and  _572
REMARK  230  A    between atoms: _576  and  _578
REMARK  231  A    between atoms: _578  and  _579
REMARK  232  A    between atoms: _578  and  _581
REMARK  233  A    between atoms: _581  and  _582
REMARK  234  A    between atoms: _588  and  _590
REMARK  235  A    between atoms: _590  and  _591
REMARK  236  A    between atoms: _590  and  _593
REMARK  237  A    between atoms: _593  and  _594
REMARK  238  A    between atoms: _600  and  _602
REMARK  239  A    between atoms: _602  and  _603
REMARK  240  A    between atoms: _602  and  _605
REMARK  241  A    between atoms: _605  and  _606
REMARK  242  A    between atoms: _608  and  _610
REMARK  243  A    between atoms: _610  and  _611
REMARK  244  A    between atoms: _610  and  _613
REMARK  245  A    between atoms: _616  and  _618
REMARK  246  A    between atoms: _618  and  _619
REMARK  247  A    between atoms: _618  and  _621
REMARK  248  A    between atoms: _621  and  _622
REMARK  249  A    between atoms: _622  and  _623
REMARK  250  A    between atoms: _623  and  _624
REMARK  251  A    between atoms: _624  and  _625
REMARK  252  A    between atoms: _629  and  _631
REMARK  253  A    between atoms: _631  and  _632
REMARK  254  A    between atoms: _631  and  _634
REMARK  255  A    between atoms: _634  and  _635
REMARK  256  A    between atoms: _641  and  _643
REMARK  257  A    between atoms: _643  and  _644
REMARK  258  A    between atoms: _643  and  _646
REMARK  259  A    between atoms: _646  and  _647
REMARK  260  A    between atoms: _652  and  _654
REMARK  261  A    between atoms: _654  and  _655
REMARK  262  A    between atoms: _654  and  _657
REMARK  263  A    between atoms: _657  and  _658
REMARK  264  A    between atoms: _660  and  _662
REMARK  265  A    between atoms: _662  and  _663
REMARK  266  A    between atoms: _662  and  _665
REMARK  267  A    between atoms: _665  and  _666
REMARK  268  A    between atoms: _668  and  _670
REMARK  269  A    between atoms: _670  and  _671
REMARK  270  A    between atoms: _670  and  _673
REMARK  271  A    between atoms: _677  and  _678
REMARK  272  A    between atoms: _683  and  _685
REMARK  273  A    between atoms: _685  and  _686
REMARK  274  A    between atoms: _685  and  _688
REMARK  275  A    between atoms: _688  and  _689
REMARK  276  A    between atoms: _694  and  _695
REMARK  277  A    between atoms: _697  and  _699
REMARK  278  A    between atoms: _699  and  _700
REMARK  279  A    between atoms: _699  and  _702
REMARK  280  A    between atoms: _702  and  _703
REMARK  281  A    between atoms: _703  and  _704
REMARK  282  A    between atoms: _704  and  _705
REMARK  283  A    between atoms: _714  and  _716
REMARK  284  A    between atoms: _716  and  _717
REMARK  285  A    between atoms: _716  and  _719
REMARK  286  A    between atoms: _719  and  _720
REMARK  287  A    between atoms: _725  and  _726
REMARK  288  A    between atoms: _728  and  _730
REMARK  289  A    between atoms: _730  and  _731
REMARK  290  A    between atoms: _730  and  _733
REMARK  291  A    between atoms: _733  and  _734
REMARK  292  A    between atoms: _740  and  _742
REMARK  293  A    between atoms: _742  and  _743
REMARK  294  A    between atoms: _742  and  _745
REMARK  295  A    between atoms: _745  and  _746
REMARK  296  A    between atoms: _748  and  _750
REMARK  297  A    between atoms: _750  and  _751
REMARK  298  A    between atoms: _750  and  _753
REMARK  299  A    between atoms: _753  and  _754
REMARK  300  A    between atoms: _760  and  _762
REMARK  301  A    between atoms: _762  and  _763
REMARK  302  A    between atoms: _762  and  _765
REMARK  303  A    between atoms: _765  and  _766
REMARK  304  A    between atoms: _766  and  _767
REMARK                            x       y       z     vdW  Elec       q    Type
REMARK                         _______ _______ _______ _____ _____    ______ ____
ROOT
ATOM      1  O   HOH     1      19.956  -7.535 -32.686  0.00  0.00    +0.000 OA
ENDROOT
TORSDOF 0
REMARK  Name = ../refined-set-2016/2xy9/2xy9_pocket.pdb
REMARK  304 active torsions:
REMARK  status: ('A' for Active; 'I' for Inactive)
REMARK    1  A    between atoms: _1  and  _3
REMARK    2  A    between atoms: _3  and  _4
REMARK    3  A    between atoms: _3  and  _6
REMARK    4  A    between atoms: _6  and  _7
REMARK    5  A    between atoms: _12  and  _14
REMARK    6  A    between atoms: _14  and  _15
REMARK    7  A    between atoms: _14  and  _17
REMARK    8  A    between atoms: _17  and  _18
REMARK    9  A    between atoms: _23  and  _25
REMARK   10  A    between atoms: _25  and  _26
REMARK   11  A    between atoms: _25  and  _28
REMARK   12  A    between atoms: _28  and  _29
REMARK   13  A    between atoms: _29  and  _30
REMARK   14  A    between atoms: _33  and  _35
REMARK   15  A    between atoms: _35  and  _36
REMARK   16  A    between atoms: _35  and  _38
REMARK   17  A    between atoms: _38  and  _39
REMARK   18  A    between atoms: _44  and  _45
REMARK   19  A    between atoms: _47  and  _49
REMARK   20  A    between atoms: _49  and  _50
REMARK   21  A    between atoms: _49  and  _52
REMARK   22  A    between atoms: _52  and  _53
REMARK   23  A    between atoms: _56  and  _58
REMARK   24  A    between atoms: _58  and  _59
REMARK   25  A    between atoms: _61  and  _63
REMARK   26  A    between atoms: _63  and  _64
REMARK   27  A    between atoms: _63  and  _66
REMARK   28  A    between atoms: _66  and  _67
REMARK   29  A    between atoms: _72  and  _74
REMARK   30  A    between atoms: _74  and  _75
REMARK   31  A    between atoms: _74  and  _77
REMARK   32  A    between atoms: _77  and  _78
REMARK   33  A    between atoms: _88  and  _90
REMARK   34  A    between atoms: _90  and  _91
REMARK   35  A    between atoms: _90  and  _93
REMARK   36  A    between atoms: _93  and  _94
REMARK   37  A    between atoms: _94  and  _95
REMARK   38  A    between atoms: _100  and  _102
REMARK   39  A    between atoms: _102  and  _103
REMARK   40  A    between atoms: _102  and  _105
REMARK   41  A    between atoms: _105  and  _106
REMARK   42  A    between atoms: _109  and  _111
REMARK   43  A    between atoms: _111  and  _112
REMARK   44  A    between atoms: _111  and  _114
REMARK   45  A    between atoms: _114  and  _115
REMARK   46  A    between atoms: _125  and  _127
REMARK   47  A    between atoms: _127  and  _128
REMARK   48  A    between atoms: _127  and  _130
REMARK   49  A    between atoms: _130  and  _131
REMARK   50  A    between atoms: _133  and  _135
REMARK   51  A    between atoms: _135  and  _136
REMARK   52  A    between atoms: _135  and  _138
REMARK   53  A    between atoms: _138  and  _139
REMARK   54  A    between atoms: _144  and  _146
REMARK   55  A    between atoms: _146  and  _147
REMARK   56  A    between atoms: _146  and  _149
REMARK   57  A    between atoms: _152  and  _154
REMARK   58  A    between atoms: _154  and  _155
REMARK   59  A    between atoms: _154  and  _157
REMARK   60  A    between atoms: _159  and  _161
REMARK   61  A    between atoms: _161  and  _162
REMARK   62  A    between atoms: _161  and  _164
REMARK   63  A    between atoms: _164  and  _165
REMARK   64  A    between atoms: _170  and  _172
REMARK   65  A    between atoms: _172  and  _173
REMARK   66  A    between atoms: _176  and  _178
REMARK   67  A    between atoms: _178  and  _179
REMARK   68  A    between atoms: _178  and  _181
REMARK   69  A    between atoms: _181  and  _182
REMARK   70  A    between atoms: _184  and  _186
REMARK   71  A    between atoms: _186  and  _187
REMARK   72  A    between atoms: _190  and  _192
REMARK   73  A    between atoms: _192  and  _193
REMARK   74  A    between atoms: _192  and  _195
REMARK   75  A    between atoms: _195  and  _196
REMARK   76  A    between atoms: _206  and  _208
REMARK   77  A    between atoms: _208  and  _209
REMARK   78  A    between atoms: _208  and  _211
REMARK   79  A    between atoms: _211  and  _212
REMARK   80  A    between atoms: _215  and  _217
REMARK   81  A    between atoms: _217  and  _218
REMARK   82  A    between atoms: _217  and  _220
REMARK   83  A    between atoms: _220  and  _221
REMARK   84  A    between atoms: _226  and  _227
REMARK   85  A    between atoms: _229  and  _231
REMARK   86  A    between atoms: _231  and  _232
REMARK   87  A    between atoms: _231  and  _234
REMARK   88  A    between atoms: _234  and  _235
REMARK   89  A    between atoms: _235  and  _236
REMARK   90  A    between atoms: _236  and  _237
REMARK   91  A    between atoms: _246  and  _248
REMARK   92  A    between atoms: _248  and  _249
REMARK   93  A    between atoms: _248  and  _251
REMARK   94  A    between atoms: _251  and  _252
REMARK   95  A    between atoms: _255  and  _257
REMARK   96  A    between atoms: _257  and  _258
REMARK   97  A    between atoms: _257  and  _260
REMARK   98  A    between atoms: _260  and  _261
REMARK   99  A    between atoms: _261  and  _262
REMARK  100  A    between atoms: _262  and  _263
REMARK  101  A    between atoms: _263  and  _264
REMARK  102  A    between atoms: _268  and  _270
REMARK  103  A    between atoms: _270  and  _271
REMARK  104  A    between atoms: _270  and  _273
REMARK  105  A    between atoms: _273  and  _274
REMARK  106  A    between atoms: _274  and  _275
REMARK  107  A    between atoms: _280  and  _282
REMARK  108  A    between atoms: _282  and  _283
REMARK  109  A    between atoms: _282  and  _285
REMARK  110  A    between atoms: _285  and  _286
REMARK  111  A    between atoms: _289  and  _291
REMARK  112  A    between atoms: _291  and  _292
REMARK  113  A    between atoms: _291  and  _294
REMARK  114  A    between atoms: _294  and  _295
REMARK  115  A    between atoms: _295  and  _296
REMARK  116  A    between atoms: _299  and  _301
REMARK  117  A    between atoms: _301  and  _302
REMARK  118  A    between atoms: _301  and  _304
REMARK  119  A    between atoms: _304  and  _305
REMARK  120  A    between atoms: _308  and  _310
REMARK  121  A    between atoms: _310  and  _311
REMARK  122  A    between atoms: _310  and  _313
REMARK  123  A    between atoms: _313  and  _314
REMARK  124  A    between atoms: _317  and  _319
REMARK  125  A    between atoms: _319  and  _320
REMARK  126  A    between atoms: _319  and  _322
REMARK  127  A    between atoms: _325  and  _327
REMARK  128  A    between atoms: _327  and  _328
REMARK  129  A    between atoms: _327  and  _330
REMARK  130  A    between atoms: _333  and  _335
REMARK  131  A    between atoms: _335  and  _336
REMARK  132  A    between atoms: _339  and  _341
REMARK  133  A    between atoms: _341  and  _342
REMARK  134  A    between atoms: _341  and  _344
REMARK  135  A    between atoms: _344  and  _345
REMARK  136  A    between atoms: _350  and  _352
REMARK  137  A    between atoms: _352  and  _353
REMARK  138  A    between atoms: _352  and  _355
REMARK  139  A    between atoms: _355  and  _356
REMARK  140  A    between atoms: _360  and  ZN_772
REMARK  141  A    between atoms: _361  and  _363
REMARK  142  A    between atoms: _363  and  _364
REMARK  143  A    between atoms: _363  and  _366
REMARK  144  A    between atoms: _366  and  _367
REMARK  145  A    between atoms: _367  and  _368
REMARK  146  A    between atoms: _371  and  _373
REMARK  147  A    between atoms: _373  and  _374
REMARK  148  A    between atoms: _373  and  _376
REMARK  149  A    between atoms: _376  and  _377
REMARK  150  A    between atoms: _377  and  _378
REMARK  151  A    between atoms: _380  and  _382
REMARK  152  A    between atoms: _382  and  _383
REMARK  153  A    between atoms: _382  and  _385
REMARK  154  A    between atoms: _385  and  _386
REMARK  155  A    between atoms: _390  and  ZN_772
REMARK  156  A    between atoms: _391  and  _393
REMARK  157  A    between atoms: _393  and  _394
REMARK  158  A    between atoms: _393  and  _396
REMARK  159  A    between atoms: _396  and  _397
REMARK  160  A    between atoms: _400  and  _402
REMARK  161  A    between atoms: _402  and  _403
REMARK  162  A    between atoms: _402  and  _405
REMARK  163  A    between atoms: _405  and  _406
REMARK  164  A    between atoms: _411  and  _412
REMARK  165  A    between atoms: _414  and  _416
REMARK  166  A    between atoms: _416  and  _417
REMARK  167  A    between atoms: _416  and  _419
REMARK  168  A    between atoms: _419  and  _420
REMARK  169  A    between atoms: _426  and  _428
REMARK  170  A    between atoms: _428  and  _429
REMARK  171  A    between atoms: _428  and  _431
REMARK  172  A    between atoms: _431  and  _432
REMARK  173  A    between atoms: _437  and  _438
REMARK  174  A    between atoms: _440  and  _442
REMARK  175  A    between atoms: _442  and  _443
REMARK  176  A    between atoms: _442  and  _445
REMARK  177  A    between atoms: _445  and  _446
REMARK  178  A    between atoms: _446  and  _447
REMARK  179  A    between atoms: _447  and  _448
REMARK  180  A    between atoms: _457  and  _459
REMARK  181  A    between atoms: _459  and  _460
REMARK  182  A    between atoms: _459  and  _462
REMARK  183  A    between atoms: _462  and  _463
REMARK  184  A    between atoms: _463  and  _464
REMARK  185  A    between atoms: _467  and  _469
REMARK  186  A    between atoms: _469  and  _470
REMARK  187  A    between atoms: _472  and  _474
REMARK  188  A    between atoms: _474  and  _475
REMARK  189  A    between atoms: _474  and  _477
REMARK  190  A    between atoms: _477  and  _478
REMARK  191  A    between atoms: _484  and  _485
REMARK  192  A    between atoms: _490  and  _492
REMARK  193  A    between atoms: _492  and  _493
REMARK  194  A    between atoms: _495  and  _497
REMARK  195  A    between atoms: _497  and  _498
REMARK  196  A    between atoms: _497  and  _500
REMARK  197  A    between atoms: _500  and  _501
REMARK  198  A    between atoms: _507  and  _509
REMARK  199  A    between atoms: _509  and  _510
REMARK  200  A    between atoms: _509  and  _512
REMARK  201  A    between atoms: _512  and  _513
REMARK  202  A    between atoms: _518  and  _520
REMARK  203  A    between atoms: _520  and  _521
REMARK  204  A    between atoms: _520  and  _523
REMARK  205  A    between atoms: _523  and  _524
REMARK  206  A    between atoms: _524  and  _525
REMARK  207  A    between atoms: _525  and  _526
REMARK  208  A    between atoms: _526  and  ZN_772
REMARK  209  A    between atoms: _528  and  _530
REMARK  210  A    between atoms: _530  and  _531
REMARK  211  A    between atoms: _534  and  _536
REMARK  212  A    between atoms: _536  and  _537
REMARK  213  A    between atoms: _539  and  _541
REMARK  214  A    between atoms: _541  and  _542
REMARK  215  A    between atoms: _541  and  _544
REMARK  216  A    between atoms: _544  and  _545
REMARK  217  A    between atoms: _548  and  _550
REMARK  218  A    between atoms: _550  and  _551
REMARK  219  A    between atoms: _554  and  _556
REMARK  220  A    between atoms: _556  and  _557
REMARK  221  A    between atoms: _556  and  _559
REMARK  222  A    between atoms: _559  and  _560
REMARK  223  A    between atoms: _563  and  _565
REMARK  224  A    between atoms: _565  and  _566
REMARK  225  A    between atoms: _565  and  _568
REMARK  226  A    between atoms: _568  and  _569
REMARK  227  A    between atoms: _569  and  _570
REMARK  228  A    between atoms: _570  and  _571
REMARK  229  A    between atoms: _571  and  _572
REMARK  230  A    between atoms: _576  and  _578
REMARK  231  A    between atoms: _578  and  _579
REMARK  232  A    between atoms: _578  and  _581
REMARK  233  A    between atoms: _581  and  _582
REMARK  234  A    between atoms: _588  and  _590
REMARK  235  A    between atoms: _590  and  _591
REMARK  236  A    between atoms: _590  and  _593
REMARK  237  A    between atoms: _593  and  _594
REMARK  238  A    between atoms: _600  and  _602
REMARK  239  A    between atoms: _602  and  _603
REMARK  240  A    between atoms: _602  and  _605
REMARK  241  A    between atoms: _605  and  _606
REMARK  242  A    between atoms: _608  and  _610
REMARK  243  A    between atoms: _610  and  _611
REMARK  244  A    between atoms: _610  and  _613
REMARK  245  A    between atoms: _616  and  _618
REMARK  246  A    between atoms: _618  and  _619
REMARK  247  A    between atoms: _618  and  _621
REMARK  248  A    between atoms: _621  and  _622
REMARK  249  A    between atoms: _622  and  _623
REMARK  250  A    between atoms: _623  and  _624
REMARK  251  A    between atoms: _624  and  _625
REMARK  252  A    between atoms: _629  and  _631
REMARK  253  A    between atoms: _631  and  _632
REMARK  254  A    between atoms: _631  and  _634
REMARK  255  A    between atoms: _634  and  _635
REMARK  256  A    between atoms: _641  and  _643
REMARK  257  A    between atoms: _643  and  _644
REMARK  258  A    between atoms: _643  and  _646
REMARK  259  A    between atoms: _646  and  _647
REMARK  260  A    between atoms: _652  and  _654
REMARK  261  A    between atoms: _654  and  _655
REMARK  262  A    between atoms: _654  and  _657
REMARK  263  A    between atoms: _657  and  _658
REMARK  264  A    between atoms: _660  and  _662
REMARK  265  A    between atoms: _662  and  _663
REMARK  266  A    between atoms: _662  and  _665
REMARK  267  A    between atoms: _665  and  _666
REMARK  268  A    between atoms: _668  and  _670
REMARK  269  A    between atoms: _670  and  _671
REMARK  270  A    between atoms: _670  and  _673
REMARK  271  A    between atoms: _677  and  _678
REMARK  272  A    between atoms: _683  and  _685
REMARK  273  A    between atoms: _685  and  _686
REMARK  274  A    between atoms: _685  and  _688
REMARK  275  A    between atoms: _688  and  _689
REMARK  276  A    between atoms: _694  and  _695
REMARK  277  A    between atoms: _697  and  _699
REMARK  278  A    between atoms: _699  and  _700
REMARK  279  A    between atoms: _699  and  _702
REMARK  280  A    between atoms: _702  and  _703
REMARK  281  A    between atoms: _703  and  _704
REMARK  282  A    between atoms: _704  and  _705
REMARK  283  A    between atoms: _714  and  _716
REMARK  284  A    between atoms: _716  and  _717
REMARK  285  A    between atoms: _716  and  _719
REMARK  286  A    between atoms: _719  and  _720
REMARK  287  A    between atoms: _725  and  _726
REMARK  288  A    between atoms: _728  and  _730
REMARK  289  A    between atoms: _730  and  _731
REMARK  290  A    between atoms: _730  and  _733
REMARK  291  A    between atoms: _733  and  _734
REMARK  292  A    between atoms: _740  and  _742
REMARK  293  A    between atoms: _742  and  _743
REMARK  294  A    between atoms: _742  and  _745
REMARK  295  A    between atoms: _745  and  _746
REMARK  296  A    between atoms: _748  and  _750
REMARK  297  A    between atoms: _750  and  _751
REMARK  298  A    between atoms: _750  and  _753
REMARK  299  A    between atoms: _753  and  _754
REMARK  300  A    between atoms: _760  and  _762
REMARK  301  A    between atoms: _762  and  _763
REMARK  302  A    between atoms: _762  and  _765
REMARK  303  A    between atoms: _765  and  _766
REMARK  304  A    between atoms: _766  and  _767
REMARK                            x       y       z     vdW  Elec       q    Type
REMARK                         _______ _______ _______ _____ _____    ______ ____
ROOT
ATOM      1  O   HOH     1      15.983 -11.179 -33.491  0.00  0.00    +0.000 OA
ENDROOT
TORSDOF 0
REMARK  Name = ../refined-set-2016/2xy9/2xy9_pocket.pdb
REMARK  304 active torsions:
REMARK  status: ('A' for Active; 'I' for Inactive)
REMARK    1  A    between atoms: _1  and  _3
REMARK    2  A    between atoms: _3  and  _4
REMARK    3  A    between atoms: _3  and  _6
REMARK    4  A    between atoms: _6  and  _7
REMARK    5  A    between atoms: _12  and  _14
REMARK    6  A    between atoms: _14  and  _15
REMARK    7  A    between atoms: _14  and  _17
REMARK    8  A    between atoms: _17  and  _18
REMARK    9  A    between atoms: _23  and  _25
REMARK   10  A    between atoms: _25  and  _26
REMARK   11  A    between atoms: _25  and  _28
REMARK   12  A    between atoms: _28  and  _29
REMARK   13  A    between atoms: _29  and  _30
REMARK   14  A    between atoms: _33  and  _35
REMARK   15  A    between atoms: _35  and  _36
REMARK   16  A    between atoms: _35  and  _38
REMARK   17  A    between atoms: _38  and  _39
REMARK   18  A    between atoms: _44  and  _45
REMARK   19  A    between atoms: _47  and  _49
REMARK   20  A    between atoms: _49  and  _50
REMARK   21  A    between atoms: _49  and  _52
REMARK   22  A    between atoms: _52  and  _53
REMARK   23  A    between atoms: _56  and  _58
REMARK   24  A    between atoms: _58  and  _59
REMARK   25  A    between atoms: _61  and  _63
REMARK   26  A    between atoms: _63  and  _64
REMARK   27  A    between atoms: _63  and  _66
REMARK   28  A    between atoms: _66  and  _67
REMARK   29  A    between atoms: _72  and  _74
REMARK   30  A    between atoms: _74  and  _75
REMARK   31  A    between atoms: _74  and  _77
REMARK   32  A    between atoms: _77  and  _78
REMARK   33  A    between atoms: _88  and  _90
REMARK   34  A    between atoms: _90  and  _91
REMARK   35  A    between atoms: _90  and  _93
REMARK   36  A    between atoms: _93  and  _94
REMARK   37  A    between atoms: _94  and  _95
REMARK   38  A    between atoms: _100  and  _102
REMARK   39  A    between atoms: _102  and  _103
REMARK   40  A    between atoms: _102  and  _105
REMARK   41  A    between atoms: _105  and  _106
REMARK   42  A    between atoms: _109  and  _111
REMARK   43  A    between atoms: _111  and  _112
REMARK   44  A    between atoms: _111  and  _114
REMARK   45  A    between atoms: _114  and  _115
REMARK   46  A    between atoms: _125  and  _127
REMARK   47  A    between atoms: _127  and  _128
REMARK   48  A    between atoms: _127  and  _130
REMARK   49  A    between atoms: _130  and  _131
REMARK   50  A    between atoms: _133  and  _135
REMARK   51  A    between atoms: _135  and  _136
REMARK   52  A    between atoms: _135  and  _138
REMARK   53  A    between atoms: _138  and  _139
REMARK   54  A    between atoms: _144  and  _146
REMARK   55  A    between atoms: _146  and  _147
REMARK   56  A    between atoms: _146  and  _149
REMARK   57  A    between atoms: _152  and  _154
REMARK   58  A    between atoms: _154  and  _155
REMARK   59  A    between atoms: _154  and  _157
REMARK   60  A    between atoms: _159  and  _161
REMARK   61  A    between atoms: _161  and  _162
REMARK   62  A    between atoms: _161  and  _164
REMARK   63  A    between atoms: _164  and  _165
REMARK   64  A    between atoms: _170  and  _172
REMARK   65  A    between atoms: _172  and  _173
REMARK   66  A    between atoms: _176  and  _178
REMARK   67  A    between atoms: _178  and  _179
REMARK   68  A    between atoms: _178  and  _181
REMARK   69  A    between atoms: _181  and  _182
REMARK   70  A    between atoms: _184  and  _186
REMARK   71  A    between atoms: _186  and  _187
REMARK   72  A    between atoms: _190  and  _192
REMARK   73  A    between atoms: _192  and  _193
REMARK   74  A    between atoms: _192  and  _195
REMARK   75  A    between atoms: _195  and  _196
REMARK   76  A    between atoms: _206  and  _208
REMARK   77  A    between atoms: _208  and  _209
REMARK   78  A    between atoms: _208  and  _211
REMARK   79  A    between atoms: _211  and  _212
REMARK   80  A    between atoms: _215  and  _217
REMARK   81  A    between atoms: _217  and  _218
REMARK   82  A    between atoms: _217  and  _220
REMARK   83  A    between atoms: _220  and  _221
REMARK   84  A    between atoms: _226  and  _227
REMARK   85  A    between atoms: _229  and  _231
REMARK   86  A    between atoms: _231  and  _232
REMARK   87  A    between atoms: _231  and  _234
REMARK   88  A    between atoms: _234  and  _235
REMARK   89  A    between atoms: _235  and  _236
REMARK   90  A    between atoms: _236  and  _237
REMARK   91  A    between atoms: _246  and  _248
REMARK   92  A    between atoms: _248  and  _249
REMARK   93  A    between atoms: _248  and  _251
REMARK   94  A    between atoms: _251  and  _252
REMARK   95  A    between atoms: _255  and  _257
REMARK   96  A    between atoms: _257  and  _258
REMARK   97  A    between atoms: _257  and  _260
REMARK   98  A    between atoms: _260  and  _261
REMARK   99  A    between atoms: _261  and  _262
REMARK  100  A    between atoms: _262  and  _263
REMARK  101  A    between atoms: _263  and  _264
REMARK  102  A    between atoms: _268  and  _270
REMARK  103  A    between atoms: _270  and  _271
REMARK  104  A    between atoms: _270  and  _273
REMARK  105  A    between atoms: _273  and  _274
REMARK  106  A    between atoms: _274  and  _275
REMARK  107  A    between atoms: _280  and  _282
REMARK  108  A    between atoms: _282  and  _283
REMARK  109  A    between atoms: _282  and  _285
REMARK  110  A    between atoms: _285  and  _286
REMARK  111  A    between atoms: _289  and  _291
REMARK  112  A    between atoms: _291  and  _292
REMARK  113  A    between atoms: _291  and  _294
REMARK  114  A    between atoms: _294  and  _295
REMARK  115  A    between atoms: _295  and  _296
REMARK  116  A    between atoms: _299  and  _301
REMARK  117  A    between atoms: _301  and  _302
REMARK  118  A    between atoms: _301  and  _304
REMARK  119  A    between atoms: _304  and  _305
REMARK  120  A    between atoms: _308  and  _310
REMARK  121  A    between atoms: _310  and  _311
REMARK  122  A    between atoms: _310  and  _313
REMARK  123  A    between atoms: _313  and  _314
REMARK  124  A    between atoms: _317  and  _319
REMARK  125  A    between atoms: _319  and  _320
REMARK  126  A    between atoms: _319  and  _322
REMARK  127  A    between atoms: _325  and  _327
REMARK  128  A    between atoms: _327  and  _328
REMARK  129  A    between atoms: _327  and  _330
REMARK  130  A    between atoms: _333  and  _335
REMARK  131  A    between atoms: _335  and  _336
REMARK  132  A    between atoms: _339  and  _341
REMARK  133  A    between atoms: _341  and  _342
REMARK  134  A    between atoms: _341  and  _344
REMARK  135  A    between atoms: _344  and  _345
REMARK  136  A    between atoms: _350  and  _352
REMARK  137  A    between atoms: _352  and  _353
REMARK  138  A    between atoms: _352  and  _355
REMARK  139  A    between atoms: _355  and  _356
REMARK  140  A    between atoms: _360  and  ZN_772
REMARK  141  A    between atoms: _361  and  _363
REMARK  142  A    between atoms: _363  and  _364
REMARK  143  A    between atoms: _363  and  _366
REMARK  144  A    between atoms: _366  and  _367
REMARK  145  A    between atoms: _367  and  _368
REMARK  146  A    between atoms: _371  and  _373
REMARK  147  A    between atoms: _373  and  _374
REMARK  148  A    between atoms: _373  and  _376
REMARK  149  A    between atoms: _376  and  _377
REMARK  150  A    between atoms: _377  and  _378
REMARK  151  A    between atoms: _380  and  _382
REMARK  152  A    between atoms: _382  and  _383
REMARK  153  A    between atoms: _382  and  _385
REMARK  154  A    between atoms: _385  and  _386
REMARK  155  A    between atoms: _390  and  ZN_772
REMARK  156  A    between atoms: _391  and  _393
REMARK  157  A    between atoms: _393  and  _394
REMARK  158  A    between atoms: _393  and  _396
REMARK  159  A    between atoms: _396  and  _397
REMARK  160  A    between atoms: _400  and  _402
REMARK  161  A    between atoms: _402  and  _403
REMARK  162  A    between atoms: _402  and  _405
REMARK  163  A    between atoms: _405  and  _406
REMARK  164  A    between atoms: _411  and  _412
REMARK  165  A    between atoms: _414  and  _416
REMARK  166  A    between atoms: _416  and  _417
REMARK  167  A    between atoms: _416  and  _419
REMARK  168  A    between atoms: _419  and  _420
REMARK  169  A    between atoms: _426  and  _428
REMARK  170  A    between atoms: _428  and  _429
REMARK  171  A    between atoms: _428  and  _431
REMARK  172  A    between atoms: _431  and  _432
REMARK  173  A    between atoms: _437  and  _438
REMARK  174  A    between atoms: _440  and  _442
REMARK  175  A    between atoms: _442  and  _443
REMARK  176  A    between atoms: _442  and  _445
REMARK  177  A    between atoms: _445  and  _446
REMARK  178  A    between atoms: _446  and  _447
REMARK  179  A    between atoms: _447  and  _448
REMARK  180  A    between atoms: _457  and  _459
REMARK  181  A    between atoms: _459  and  _460
REMARK  182  A    between atoms: _459  and  _462
REMARK  183  A    between atoms: _462  and  _463
REMARK  184  A    between atoms: _463  and  _464
REMARK  185  A    between atoms: _467  and  _469
REMARK  186  A    between atoms: _469  and  _470
REMARK  187  A    between atoms: _472  and  _474
REMARK  188  A    between atoms: _474  and  _475
REMARK  189  A    between atoms: _474  and  _477
REMARK  190  A    between atoms: _477  and  _478
REMARK  191  A    between atoms: _484  and  _485
REMARK  192  A    between atoms: _490  and  _492
REMARK  193  A    between atoms: _492  and  _493
REMARK  194  A    between atoms: _495  and  _497
REMARK  195  A    between atoms: _497  and  _498
REMARK  196  A    between atoms: _497  and  _500
REMARK  197  A    between atoms: _500  and  _501
REMARK  198  A    between atoms: _507  and  _509
REMARK  199  A    between atoms: _509  and  _510
REMARK  200  A    between atoms: _509  and  _512
REMARK  201  A    between atoms: _512  and  _513
REMARK  202  A    between atoms: _518  and  _520
REMARK  203  A    between atoms: _520  and  _521
REMARK  204  A    between atoms: _520  and  _523
REMARK  205  A    between atoms: _523  and  _524
REMARK  206  A    between atoms: _524  and  _525
REMARK  207  A    between atoms: _525  and  _526
REMARK  208  A    between atoms: _526  and  ZN_772
REMARK  209  A    between atoms: _528  and  _530
REMARK  210  A    between atoms: _530  and  _531
REMARK  211  A    between atoms: _534  and  _536
REMARK  212  A    between atoms: _536  and  _537
REMARK  213  A    between atoms: _539  and  _541
REMARK  214  A    between atoms: _541  and  _542
REMARK  215  A    between atoms: _541  and  _544
REMARK  216  A    between atoms: _544  and  _545
REMARK  217  A    between atoms: _548  and  _550
REMARK  218  A    between atoms: _550  and  _551
REMARK  219  A    between atoms: _554  and  _556
REMARK  220  A    between atoms: _556  and  _557
REMARK  221  A    between atoms: _556  and  _559
REMARK  222  A    between atoms: _559  and  _560
REMARK  223  A    between atoms: _563  and  _565
REMARK  224  A    between atoms: _565  and  _566
REMARK  225  A    between atoms: _565  and  _568
REMARK  226  A    between atoms: _568  and  _569
REMARK  227  A    between atoms: _569  and  _570
REMARK  228  A    between atoms: _570  and  _571
REMARK  229  A    between atoms: _571  and  _572
REMARK  230  A    between atoms: _576  and  _578
REMARK  231  A    between atoms: _578  and  _579
REMARK  232  A    between atoms: _578  and  _581
REMARK  233  A    between atoms: _581  and  _582
REMARK  234  A    between atoms: _588  and  _590
REMARK  235  A    between atoms: _590  and  _591
REMARK  236  A    between atoms: _590  and  _593
REMARK  237  A    between atoms: _593  and  _594
REMARK  238  A    between atoms: _600  and  _602
REMARK  239  A    between atoms: _602  and  _603
REMARK  240  A    between atoms: _602  and  _605
REMARK  241  A    between atoms: _605  and  _606
REMARK  242  A    between atoms: _608  and  _610
REMARK  243  A    between atoms: _610  and  _611
REMARK  244  A    between atoms: _610  and  _613
REMARK  245  A    between atoms: _616  and  _618
REMARK  246  A    between atoms: _618  and  _619
REMARK  247  A    between atoms: _618  and  _621
REMARK  248  A    between atoms: _621  and  _622
REMARK  249  A    between atoms: _622  and  _623
REMARK  250  A    between atoms: _623  and  _624
REMARK  251  A    between atoms: _624  and  _625
REMARK  252  A    between atoms: _629  and  _631
REMARK  253  A    between atoms: _631  and  _632
REMARK  254  A    between atoms: _631  and  _634
REMARK  255  A    between atoms: _634  and  _635
REMARK  256  A    between atoms: _641  and  _643
REMARK  257  A    between atoms: _643  and  _644
REMARK  258  A    between atoms: _643  and  _646
REMARK  259  A    between atoms: _646  and  _647
REMARK  260  A    between atoms: _652  and  _654
REMARK  261  A    between atoms: _654  and  _655
REMARK  262  A    between atoms: _654  and  _657
REMARK  263  A    between atoms: _657  and  _658
REMARK  264  A    between atoms: _660  and  _662
REMARK  265  A    between atoms: _662  and  _663
REMARK  266  A    between atoms: _662  and  _665
REMARK  267  A    between atoms: _665  and  _666
REMARK  268  A    between atoms: _668  and  _670
REMARK  269  A    between atoms: _670  and  _671
REMARK  270  A    between atoms: _670  and  _673
REMARK  271  A    between atoms: _677  and  _678
REMARK  272  A    between atoms: _683  and  _685
REMARK  273  A    between atoms: _685  and  _686
REMARK  274  A    between atoms: _685  and  _688
REMARK  275  A    between atoms: _688  and  _689
REMARK  276  A    between atoms: _694  and  _695
REMARK  277  A    between atoms: _697  and  _699
REMARK  278  A    between atoms: _699  and  _700
REMARK  279  A    between atoms: _699  and  _702
REMARK  280  A    between atoms: _702  and  _703
REMARK  281  A    between atoms: _703  and  _704
REMARK  282  A    between atoms: _704  and  _705
REMARK  283  A    between atoms: _714  and  _716
REMARK  284  A    between atoms: _716  and  _717
REMARK  285  A    between atoms: _716  and  _719
REMARK  286  A    between atoms: _719  and  _720
REMARK  287  A    between atoms: _725  and  _726
REMARK  288  A    between atoms: _728  and  _730
REMARK  289  A    between atoms: _730  and  _731
REMARK  290  A    between atoms: _730  and  _733
REMARK  291  A    between atoms: _733  and  _734
REMARK  292  A    between atoms: _740  and  _742
REMARK  293  A    between atoms: _742  and  _743
REMARK  294  A    between atoms: _742  and  _745
REMARK  295  A    between atoms: _745  and  _746
REMARK  296  A    between atoms: _748  and  _750
REMARK  297  A    between atoms: _750  and  _751
REMARK  298  A    between atoms: _750  and  _753
REMARK  299  A    between atoms: _753  and  _754
REMARK  300  A    between atoms: _760  and  _762
REMARK  301  A    between atoms: _762  and  _763
REMARK  302  A    between atoms: _762  and  _765
REMARK  303  A    between atoms: _765  and  _766
REMARK  304  A    between atoms: _766  and  _767
REMARK                            x       y       z     vdW  Elec       q    Type
REMARK                         _______ _______ _______ _____ _____    ______ ____
ROOT
ATOM      1  O   HOH     1      20.820  -8.632 -36.393  0.00  0.00    +0.000 OA
ENDROOT
TORSDOF 0
REMARK  Name = ../refined-set-2016/2xy9/2xy9_pocket.pdb
REMARK  304 active torsions:
REMARK  status: ('A' for Active; 'I' for Inactive)
REMARK    1  A    between atoms: _1  and  _3
REMARK    2  A    between atoms: _3  and  _4
REMARK    3  A    between atoms: _3  and  _6
REMARK    4  A    between atoms: _6  and  _7
REMARK    5  A    between atoms: _12  and  _14
REMARK    6  A    between atoms: _14  and  _15
REMARK    7  A    between atoms: _14  and  _17
REMARK    8  A    between atoms: _17  and  _18
REMARK    9  A    between atoms: _23  and  _25
REMARK   10  A    between atoms: _25  and  _26
REMARK   11  A    between atoms: _25  and  _28
REMARK   12  A    between atoms: _28  and  _29
REMARK   13  A    between atoms: _29  and  _30
REMARK   14  A    between atoms: _33  and  _35
REMARK   15  A    between atoms: _35  and  _36
REMARK   16  A    between atoms: _35  and  _38
REMARK   17  A    between atoms: _38  and  _39
REMARK   18  A    between atoms: _44  and  _45
REMARK   19  A    between atoms: _47  and  _49
REMARK   20  A    between atoms: _49  and  _50
REMARK   21  A    between atoms: _49  and  _52
REMARK   22  A    between atoms: _52  and  _53
REMARK   23  A    between atoms: _56  and  _58
REMARK   24  A    between atoms: _58  and  _59
REMARK   25  A    between atoms: _61  and  _63
REMARK   26  A    between atoms: _63  and  _64
REMARK   27  A    between atoms: _63  and  _66
REMARK   28  A    between atoms: _66  and  _67
REMARK   29  A    between atoms: _72  and  _74
REMARK   30  A    between atoms: _74  and  _75
REMARK   31  A    between atoms: _74  and  _77
REMARK   32  A    between atoms: _77  and  _78
REMARK   33  A    between atoms: _88  and  _90
REMARK   34  A    between atoms: _90  and  _91
REMARK   35  A    between atoms: _90  and  _93
REMARK   36  A    between atoms: _93  and  _94
REMARK   37  A    between atoms: _94  and  _95
REMARK   38  A    between atoms: _100  and  _102
REMARK   39  A    between atoms: _102  and  _103
REMARK   40  A    between atoms: _102  and  _105
REMARK   41  A    between atoms: _105  and  _106
REMARK   42  A    between atoms: _109  and  _111
REMARK   43  A    between atoms: _111  and  _112
REMARK   44  A    between atoms: _111  and  _114
REMARK   45  A    between atoms: _114  and  _115
REMARK   46  A    between atoms: _125  and  _127
REMARK   47  A    between atoms: _127  and  _128
REMARK   48  A    between atoms: _127  and  _130
REMARK   49  A    between atoms: _130  and  _131
REMARK   50  A    between atoms: _133  and  _135
REMARK   51  A    between atoms: _135  and  _136
REMARK   52  A    between atoms: _135  and  _138
REMARK   53  A    between atoms: _138  and  _139
REMARK   54  A    between atoms: _144  and  _146
REMARK   55  A    between atoms: _146  and  _147
REMARK   56  A    between atoms: _146  and  _149
REMARK   57  A    between atoms: _152  and  _154
REMARK   58  A    between atoms: _154  and  _155
REMARK   59  A    between atoms: _154  and  _157
REMARK   60  A    between atoms: _159  and  _161
REMARK   61  A    between atoms: _161  and  _162
REMARK   62  A    between atoms: _161  and  _164
REMARK   63  A    between atoms: _164  and  _165
REMARK   64  A    between atoms: _170  and  _172
REMARK   65  A    between atoms: _172  and  _173
REMARK   66  A    between atoms: _176  and  _178
REMARK   67  A    between atoms: _178  and  _179
REMARK   68  A    between atoms: _178  and  _181
REMARK   69  A    between atoms: _181  and  _182
REMARK   70  A    between atoms: _184  and  _186
REMARK   71  A    between atoms: _186  and  _187
REMARK   72  A    between atoms: _190  and  _192
REMARK   73  A    between atoms: _192  and  _193
REMARK   74  A    between atoms: _192  and  _195
REMARK   75  A    between atoms: _195  and  _196
REMARK   76  A    between atoms: _206  and  _208
REMARK   77  A    between atoms: _208  and  _209
REMARK   78  A    between atoms: _208  and  _211
REMARK   79  A    between atoms: _211  and  _212
REMARK   80  A    between atoms: _215  and  _217
REMARK   81  A    between atoms: _217  and  _218
REMARK   82  A    between atoms: _217  and  _220
REMARK   83  A    between atoms: _220  and  _221
REMARK   84  A    between atoms: _226  and  _227
REMARK   85  A    between atoms: _229  and  _231
REMARK   86  A    between atoms: _231  and  _232
REMARK   87  A    between atoms: _231  and  _234
REMARK   88  A    between atoms: _234  and  _235
REMARK   89  A    between atoms: _235  and  _236
REMARK   90  A    between atoms: _236  and  _237
REMARK   91  A    between atoms: _246  and  _248
REMARK   92  A    between atoms: _248  and  _249
REMARK   93  A    between atoms: _248  and  _251
REMARK   94  A    between atoms: _251  and  _252
REMARK   95  A    between atoms: _255  and  _257
REMARK   96  A    between atoms: _257  and  _258
REMARK   97  A    between atoms: _257  and  _260
REMARK   98  A    between atoms: _260  and  _261
REMARK   99  A    between atoms: _261  and  _262
REMARK  100  A    between atoms: _262  and  _263
REMARK  101  A    between atoms: _263  and  _264
REMARK  102  A    between atoms: _268  and  _270
REMARK  103  A    between atoms: _270  and  _271
REMARK  104  A    between atoms: _270  and  _273
REMARK  105  A    between atoms: _273  and  _274
REMARK  106  A    between atoms: _274  and  _275
REMARK  107  A    between atoms: _280  and  _282
REMARK  108  A    between atoms: _282  and  _283
REMARK  109  A    between atoms: _282  and  _285
REMARK  110  A    between atoms: _285  and  _286
REMARK  111  A    between atoms: _289  and  _291
REMARK  112  A    between atoms: _291  and  _292
REMARK  113  A    between atoms: _291  and  _294
REMARK  114  A    between atoms: _294  and  _295
REMARK  115  A    between atoms: _295  and  _296
REMARK  116  A    between atoms: _299  and  _301
REMARK  117  A    between atoms: _301  and  _302
REMARK  118  A    between atoms: _301  and  _304
REMARK  119  A    between atoms: _304  and  _305
REMARK  120  A    between atoms: _308  and  _310
REMARK  121  A    between atoms: _310  and  _311
REMARK  122  A    between atoms: _310  and  _313
REMARK  123  A    between atoms: _313  and  _314
REMARK  124  A    between atoms: _317  and  _319
REMARK  125  A    between atoms: _319  and  _320
REMARK  126  A    between atoms: _319  and  _322
REMARK  127  A    between atoms: _325  and  _327
REMARK  128  A    between atoms: _327  and  _328
REMARK  129  A    between atoms: _327  and  _330
REMARK  130  A    between atoms: _333  and  _335
REMARK  131  A    between atoms: _335  and  _336
REMARK  132  A    between atoms: _339  and  _341
REMARK  133  A    between atoms: _341  and  _342
REMARK  134  A    between atoms: _341  and  _344
REMARK  135  A    between atoms: _344  and  _345
REMARK  136  A    between atoms: _350  and  _352
REMARK  137  A    between atoms: _352  and  _353
REMARK  138  A    between atoms: _352  and  _355
REMARK  139  A    between atoms: _355  and  _356
REMARK  140  A    between atoms: _360  and  ZN_772
REMARK  141  A    between atoms: _361  and  _363
REMARK  142  A    between atoms: _363  and  _364
REMARK  143  A    between atoms: _363  and  _366
REMARK  144  A    between atoms: _366  and  _367
REMARK  145  A    between atoms: _367  and  _368
REMARK  146  A    between atoms: _371  and  _373
REMARK  147  A    between atoms: _373  and  _374
REMARK  148  A    between atoms: _373  and  _376
REMARK  149  A    between atoms: _376  and  _377
REMARK  150  A    between atoms: _377  and  _378
REMARK  151  A    between atoms: _380  and  _382
REMARK  152  A    between atoms: _382  and  _383
REMARK  153  A    between atoms: _382  and  _385
REMARK  154  A    between atoms: _385  and  _386
REMARK  155  A    between atoms: _390  and  ZN_772
REMARK  156  A    between atoms: _391  and  _393
REMARK  157  A    between atoms: _393  and  _394
REMARK  158  A    between atoms: _393  and  _396
REMARK  159  A    between atoms: _396  and  _397
REMARK  160  A    between atoms: _400  and  _402
REMARK  161  A    between atoms: _402  and  _403
REMARK  162  A    between atoms: _402  and  _405
REMARK  163  A    between atoms: _405  and  _406
REMARK  164  A    between atoms: _411  and  _412
REMARK  165  A    between atoms: _414  and  _416
REMARK  166  A    between atoms: _416  and  _417
REMARK  167  A    between atoms: _416  and  _419
REMARK  168  A    between atoms: _419  and  _420
REMARK  169  A    between atoms: _426  and  _428
REMARK  170  A    between atoms: _428  and  _429
REMARK  171  A    between atoms: _428  and  _431
REMARK  172  A    between atoms: _431  and  _432
REMARK  173  A    between atoms: _437  and  _438
REMARK  174  A    between atoms: _440  and  _442
REMARK  175  A    between atoms: _442  and  _443
REMARK  176  A    between atoms: _442  and  _445
REMARK  177  A    between atoms: _445  and  _446
REMARK  178  A    between atoms: _446  and  _447
REMARK  179  A    between atoms: _447  and  _448
REMARK  180  A    between atoms: _457  and  _459
REMARK  181  A    between atoms: _459  and  _460
REMARK  182  A    between atoms: _459  and  _462
REMARK  183  A    between atoms: _462  and  _463
REMARK  184  A    between atoms: _463  and  _464
REMARK  185  A    between atoms: _467  and  _469
REMARK  186  A    between atoms: _469  and  _470
REMARK  187  A    between atoms: _472  and  _474
REMARK  188  A    between atoms: _474  and  _475
REMARK  189  A    between atoms: _474  and  _477
REMARK  190  A    between atoms: _477  and  _478
REMARK  191  A    between atoms: _484  and  _485
REMARK  192  A    between atoms: _490  and  _492
REMARK  193  A    between atoms: _492  and  _493
REMARK  194  A    between atoms: _495  and  _497
REMARK  195  A    between atoms: _497  and  _498
REMARK  196  A    between atoms: _497  and  _500
REMARK  197  A    between atoms: _500  and  _501
REMARK  198  A    between atoms: _507  and  _509
REMARK  199  A    between atoms: _509  and  _510
REMARK  200  A    between atoms: _509  and  _512
REMARK  201  A    between atoms: _512  and  _513
REMARK  202  A    between atoms: _518  and  _520
REMARK  203  A    between atoms: _520  and  _521
REMARK  204  A    between atoms: _520  and  _523
REMARK  205  A    between atoms: _523  and  _524
REMARK  206  A    between atoms: _524  and  _525
REMARK  207  A    between atoms: _525  and  _526
REMARK  208  A    between atoms: _526  and  ZN_772
REMARK  209  A    between atoms: _528  and  _530
REMARK  210  A    between atoms: _530  and  _531
REMARK  211  A    between atoms: _534  and  _536
REMARK  212  A    between atoms: _536  and  _537
REMARK  213  A    between atoms: _539  and  _541
REMARK  214  A    between atoms: _541  and  _542
REMARK  215  A    between atoms: _541  and  _544
REMARK  216  A    between atoms: _544  and  _545
REMARK  217  A    between atoms: _548  and  _550
REMARK  218  A    between atoms: _550  and  _551
REMARK  219  A    between atoms: _554  and  _556
REMARK  220  A    between atoms: _556  and  _557
REMARK  221  A    between atoms: _556  and  _559
REMARK  222  A    between atoms: _559  and  _560
REMARK  223  A    between atoms: _563  and  _565
REMARK  224  A    between atoms: _565  and  _566
REMARK  225  A    between atoms: _565  and  _568
REMARK  226  A    between atoms: _568  and  _569
REMARK  227  A    between atoms: _569  and  _570
REMARK  228  A    between atoms: _570  and  _571
REMARK  229  A    between atoms: _571  and  _572
REMARK  230  A    between atoms: _576  and  _578
REMARK  231  A    between atoms: _578  and  _579
REMARK  232  A    between atoms: _578  and  _581
REMARK  233  A    between atoms: _581  and  _582
REMARK  234  A    between atoms: _588  and  _590
REMARK  235  A    between atoms: _590  and  _591
REMARK  236  A    between atoms: _590  and  _593
REMARK  237  A    between atoms: _593  and  _594
REMARK  238  A    between atoms: _600  and  _602
REMARK  239  A    between atoms: _602  and  _603
REMARK  240  A    between atoms: _602  and  _605
REMARK  241  A    between atoms: _605  and  _606
REMARK  242  A    between atoms: _608  and  _610
REMARK  243  A    between atoms: _610  and  _611
REMARK  244  A    between atoms: _610  and  _613
REMARK  245  A    between atoms: _616  and  _618
REMARK  246  A    between atoms: _618  and  _619
REMARK  247  A    between atoms: _618  and  _621
REMARK  248  A    between atoms: _621  and  _622
REMARK  249  A    between atoms: _622  and  _623
REMARK  250  A    between atoms: _623  and  _624
REMARK  251  A    between atoms: _624  and  _625
REMARK  252  A    between atoms: _629  and  _631
REMARK  253  A    between atoms: _631  and  _632
REMARK  254  A    between atoms: _631  and  _634
REMARK  255  A    between atoms: _634  and  _635
REMARK  256  A    between atoms: _641  and  _643
REMARK  257  A    between atoms: _643  and  _644
REMARK  258  A    between atoms: _643  and  _646
REMARK  259  A    between atoms: _646  and  _647
REMARK  260  A    between atoms: _652  and  _654
REMARK  261  A    between atoms: _654  and  _655
REMARK  262  A    between atoms: _654  and  _657
REMARK  263  A    between atoms: _657  and  _658
REMARK  264  A    between atoms: _660  and  _662
REMARK  265  A    between atoms: _662  and  _663
REMARK  266  A    between atoms: _662  and  _665
REMARK  267  A    between atoms: _665  and  _666
REMARK  268  A    between atoms: _668  and  _670
REMARK  269  A    between atoms: _670  and  _671
REMARK  270  A    between atoms: _670  and  _673
REMARK  271  A    between atoms: _677  and  _678
REMARK  272  A    between atoms: _683  and  _685
REMARK  273  A    between atoms: _685  and  _686
REMARK  274  A    between atoms: _685  and  _688
REMARK  275  A    between atoms: _688  and  _689
REMARK  276  A    between atoms: _694  and  _695
REMARK  277  A    between atoms: _697  and  _699
REMARK  278  A    between atoms: _699  and  _700
REMARK  279  A    between atoms: _699  and  _702
REMARK  280  A    between atoms: _702  and  _703
REMARK  281  A    between atoms: _703  and  _704
REMARK  282  A    between atoms: _704  and  _705
REMARK  283  A    between atoms: _714  and  _716
REMARK  284  A    between atoms: _716  and  _717
REMARK  285  A    between atoms: _716  and  _719
REMARK  286  A    between atoms: _719  and  _720
REMARK  287  A    between atoms: _725  and  _726
REMARK  288  A    between atoms: _728  and  _730
REMARK  289  A    between atoms: _730  and  _731
REMARK  290  A    between atoms: _730  and  _733
REMARK  291  A    between atoms: _733  and  _734
REMARK  292  A    between atoms: _740  and  _742
REMARK  293  A    between atoms: _742  and  _743
REMARK  294  A    between atoms: _742  and  _745
REMARK  295  A    between atoms: _745  and  _746
REMARK  296  A    between atoms: _748  and  _750
REMARK  297  A    between atoms: _750  and  _751
REMARK  298  A    between atoms: _750  and  _753
REMARK  299  A    between atoms: _753  and  _754
REMARK  300  A    between atoms: _760  and  _762
REMARK  301  A    between atoms: _762  and  _763
REMARK  302  A    between atoms: _762  and  _765
REMARK  303  A    between atoms: _765  and  _766
REMARK  304  A    between atoms: _766  and  _767
REMARK                            x       y       z     vdW  Elec       q    Type
REMARK                         _______ _______ _______ _____ _____    ______ ____
ROOT
ATOM      1  O   HOH     1      20.243 -10.010 -31.840  0.00  0.00    +0.000 OA
ENDROOT
TORSDOF 0
REMARK  Name = ../refined-set-2016/2xy9/2xy9_pocket.pdb
REMARK  304 active torsions:
REMARK  status: ('A' for Active; 'I' for Inactive)
REMARK    1  A    between atoms: _1  and  _3
REMARK    2  A    between atoms: _3  and  _4
REMARK    3  A    between atoms: _3  and  _6
REMARK    4  A    between atoms: _6  and  _7
REMARK    5  A    between atoms: _12  and  _14
REMARK    6  A    between atoms: _14  and  _15
REMARK    7  A    between atoms: _14  and  _17
REMARK    8  A    between atoms: _17  and  _18
REMARK    9  A    between atoms: _23  and  _25
REMARK   10  A    between atoms: _25  and  _26
REMARK   11  A    between atoms: _25  and  _28
REMARK   12  A    between atoms: _28  and  _29
REMARK   13  A    between atoms: _29  and  _30
REMARK   14  A    between atoms: _33  and  _35
REMARK   15  A    between atoms: _35  and  _36
REMARK   16  A    between atoms: _35  and  _38
REMARK   17  A    between atoms: _38  and  _39
REMARK   18  A    between atoms: _44  and  _45
REMARK   19  A    between atoms: _47  and  _49
REMARK   20  A    between atoms: _49  and  _50
REMARK   21  A    between atoms: _49  and  _52
REMARK   22  A    between atoms: _52  and  _53
REMARK   23  A    between atoms: _56  and  _58
REMARK   24  A    between atoms: _58  and  _59
REMARK   25  A    between atoms: _61  and  _63
REMARK   26  A    between atoms: _63  and  _64
REMARK   27  A    between atoms: _63  and  _66
REMARK   28  A    between atoms: _66  and  _67
REMARK   29  A    between atoms: _72  and  _74
REMARK   30  A    between atoms: _74  and  _75
REMARK   31  A    between atoms: _74  and  _77
REMARK   32  A    between atoms: _77  and  _78
REMARK   33  A    between atoms: _88  and  _90
REMARK   34  A    between atoms: _90  and  _91
REMARK   35  A    between atoms: _90  and  _93
REMARK   36  A    between atoms: _93  and  _94
REMARK   37  A    between atoms: _94  and  _95
REMARK   38  A    between atoms: _100  and  _102
REMARK   39  A    between atoms: _102  and  _103
REMARK   40  A    between atoms: _102  and  _105
REMARK   41  A    between atoms: _105  and  _106
REMARK   42  A    between atoms: _109  and  _111
REMARK   43  A    between atoms: _111  and  _112
REMARK   44  A    between atoms: _111  and  _114
REMARK   45  A    between atoms: _114  and  _115
REMARK   46  A    between atoms: _125  and  _127
REMARK   47  A    between atoms: _127  and  _128
REMARK   48  A    between atoms: _127  and  _130
REMARK   49  A    between atoms: _130  and  _131
REMARK   50  A    between atoms: _133  and  _135
REMARK   51  A    between atoms: _135  and  _136
REMARK   52  A    between atoms: _135  and  _138
REMARK   53  A    between atoms: _138  and  _139
REMARK   54  A    between atoms: _144  and  _146
REMARK   55  A    between atoms: _146  and  _147
REMARK   56  A    between atoms: _146  and  _149
REMARK   57  A    between atoms: _152  and  _154
REMARK   58  A    between atoms: _154  and  _155
REMARK   59  A    between atoms: _154  and  _157
REMARK   60  A    between atoms: _159  and  _161
REMARK   61  A    between atoms: _161  and  _162
REMARK   62  A    between atoms: _161  and  _164
REMARK   63  A    between atoms: _164  and  _165
REMARK   64  A    between atoms: _170  and  _172
REMARK   65  A    between atoms: _172  and  _173
REMARK   66  A    between atoms: _176  and  _178
REMARK   67  A    between atoms: _178  and  _179
REMARK   68  A    between atoms: _178  and  _181
REMARK   69  A    between atoms: _181  and  _182
REMARK   70  A    between atoms: _184  and  _186
REMARK   71  A    between atoms: _186  and  _187
REMARK   72  A    between atoms: _190  and  _192
REMARK   73  A    between atoms: _192  and  _193
REMARK   74  A    between atoms: _192  and  _195
REMARK   75  A    between atoms: _195  and  _196
REMARK   76  A    between atoms: _206  and  _208
REMARK   77  A    between atoms: _208  and  _209
REMARK   78  A    between atoms: _208  and  _211
REMARK   79  A    between atoms: _211  and  _212
REMARK   80  A    between atoms: _215  and  _217
REMARK   81  A    between atoms: _217  and  _218
REMARK   82  A    between atoms: _217  and  _220
REMARK   83  A    between atoms: _220  and  _221
REMARK   84  A    between atoms: _226  and  _227
REMARK   85  A    between atoms: _229  and  _231
REMARK   86  A    between atoms: _231  and  _232
REMARK   87  A    between atoms: _231  and  _234
REMARK   88  A    between atoms: _234  and  _235
REMARK   89  A    between atoms: _235  and  _236
REMARK   90  A    between atoms: _236  and  _237
REMARK   91  A    between atoms: _246  and  _248
REMARK   92  A    between atoms: _248  and  _249
REMARK   93  A    between atoms: _248  and  _251
REMARK   94  A    between atoms: _251  and  _252
REMARK   95  A    between atoms: _255  and  _257
REMARK   96  A    between atoms: _257  and  _258
REMARK   97  A    between atoms: _257  and  _260
REMARK   98  A    between atoms: _260  and  _261
REMARK   99  A    between atoms: _261  and  _262
REMARK  100  A    between atoms: _262  and  _263
REMARK  101  A    between atoms: _263  and  _264
REMARK  102  A    between atoms: _268  and  _270
REMARK  103  A    between atoms: _270  and  _271
REMARK  104  A    between atoms: _270  and  _273
REMARK  105  A    between atoms: _273  and  _274
REMARK  106  A    between atoms: _274  and  _275
REMARK  107  A    between atoms: _280  and  _282
REMARK  108  A    between atoms: _282  and  _283
REMARK  109  A    between atoms: _282  and  _285
REMARK  110  A    between atoms: _285  and  _286
REMARK  111  A    between atoms: _289  and  _291
REMARK  112  A    between atoms: _291  and  _292
REMARK  113  A    between atoms: _291  and  _294
REMARK  114  A    between atoms: _294  and  _295
REMARK  115  A    between atoms: _295  and  _296
REMARK  116  A    between atoms: _299  and  _301
REMARK  117  A    between atoms: _301  and  _302
REMARK  118  A    between atoms: _301  and  _304
REMARK  119  A    between atoms: _304  and  _305
REMARK  120  A    between atoms: _308  and  _310
REMARK  121  A    between atoms: _310  and  _311
REMARK  122  A    between atoms: _310  and  _313
REMARK  123  A    between atoms: _313  and  _314
REMARK  124  A    between atoms: _317  and  _319
REMARK  125  A    between atoms: _319  and  _320
REMARK  126  A    between atoms: _319  and  _322
REMARK  127  A    between atoms: _325  and  _327
REMARK  128  A    between atoms: _327  and  _328
REMARK  129  A    between atoms: _327  and  _330
REMARK  130  A    between atoms: _333  and  _335
REMARK  131  A    between atoms: _335  and  _336
REMARK  132  A    between atoms: _339  and  _341
REMARK  133  A    between atoms: _341  and  _342
REMARK  134  A    between atoms: _341  and  _344
REMARK  135  A    between atoms: _344  and  _345
REMARK  136  A    between atoms: _350  and  _352
REMARK  137  A    between atoms: _352  and  _353
REMARK  138  A    between atoms: _352  and  _355
REMARK  139  A    between atoms: _355  and  _356
REMARK  140  A    between atoms: _360  and  ZN_772
REMARK  141  A    between atoms: _361  and  _363
REMARK  142  A    between atoms: _363  and  _364
REMARK  143  A    between atoms: _363  and  _366
REMARK  144  A    between atoms: _366  and  _367
REMARK  145  A    between atoms: _367  and  _368
REMARK  146  A    between atoms: _371  and  _373
REMARK  147  A    between atoms: _373  and  _374
REMARK  148  A    between atoms: _373  and  _376
REMARK  149  A    between atoms: _376  and  _377
REMARK  150  A    between atoms: _377  and  _378
REMARK  151  A    between atoms: _380  and  _382
REMARK  152  A    between atoms: _382  and  _383
REMARK  153  A    between atoms: _382  and  _385
REMARK  154  A    between atoms: _385  and  _386
REMARK  155  A    between atoms: _390  and  ZN_772
REMARK  156  A    between atoms: _391  and  _393
REMARK  157  A    between atoms: _393  and  _394
REMARK  158  A    between atoms: _393  and  _396
REMARK  159  A    between atoms: _396  and  _397
REMARK  160  A    between atoms: _400  and  _402
REMARK  161  A    between atoms: _402  and  _403
REMARK  162  A    between atoms: _402  and  _405
REMARK  163  A    between atoms: _405  and  _406
REMARK  164  A    between atoms: _411  and  _412
REMARK  165  A    between atoms: _414  and  _416
REMARK  166  A    between atoms: _416  and  _417
REMARK  167  A    between atoms: _416  and  _419
REMARK  168  A    between atoms: _419  and  _420
REMARK  169  A    between atoms: _426  and  _428
REMARK  170  A    between atoms: _428  and  _429
REMARK  171  A    between atoms: _428  and  _431
REMARK  172  A    between atoms: _431  and  _432
REMARK  173  A    between atoms: _437  and  _438
REMARK  174  A    between atoms: _440  and  _442
REMARK  175  A    between atoms: _442  and  _443
REMARK  176  A    between atoms: _442  and  _445
REMARK  177  A    between atoms: _445  and  _446
REMARK  178  A    between atoms: _446  and  _447
REMARK  179  A    between atoms: _447  and  _448
REMARK  180  A    between atoms: _457  and  _459
REMARK  181  A    between atoms: _459  and  _460
REMARK  182  A    between atoms: _459  and  _462
REMARK  183  A    between atoms: _462  and  _463
REMARK  184  A    between atoms: _463  and  _464
REMARK  185  A    between atoms: _467  and  _469
REMARK  186  A    between atoms: _469  and  _470
REMARK  187  A    between atoms: _472  and  _474
REMARK  188  A    between atoms: _474  and  _475
REMARK  189  A    between atoms: _474  and  _477
REMARK  190  A    between atoms: _477  and  _478
REMARK  191  A    between atoms: _484  and  _485
REMARK  192  A    between atoms: _490  and  _492
REMARK  193  A    between atoms: _492  and  _493
REMARK  194  A    between atoms: _495  and  _497
REMARK  195  A    between atoms: _497  and  _498
REMARK  196  A    between atoms: _497  and  _500
REMARK  197  A    between atoms: _500  and  _501
REMARK  198  A    between atoms: _507  and  _509
REMARK  199  A    between atoms: _509  and  _510
REMARK  200  A    between atoms: _509  and  _512
REMARK  201  A    between atoms: _512  and  _513
REMARK  202  A    between atoms: _518  and  _520
REMARK  203  A    between atoms: _520  and  _521
REMARK  204  A    between atoms: _520  and  _523
REMARK  205  A    between atoms: _523  and  _524
REMARK  206  A    between atoms: _524  and  _525
REMARK  207  A    between atoms: _525  and  _526
REMARK  208  A    between atoms: _526  and  ZN_772
REMARK  209  A    between atoms: _528  and  _530
REMARK  210  A    between atoms: _530  and  _531
REMARK  211  A    between atoms: _534  and  _536
REMARK  212  A    between atoms: _536  and  _537
REMARK  213  A    between atoms: _539  and  _541
REMARK  214  A    between atoms: _541  and  _542
REMARK  215  A    between atoms: _541  and  _544
REMARK  216  A    between atoms: _544  and  _545
REMARK  217  A    between atoms: _548  and  _550
REMARK  218  A    between atoms: _550  and  _551
REMARK  219  A    between atoms: _554  and  _556
REMARK  220  A    between atoms: _556  and  _557
REMARK  221  A    between atoms: _556  and  _559
REMARK  222  A    between atoms: _559  and  _560
REMARK  223  A    between atoms: _563  and  _565
REMARK  224  A    between atoms: _565  and  _566
REMARK  225  A    between atoms: _565  and  _568
REMARK  226  A    between atoms: _568  and  _569
REMARK  227  A    between atoms: _569  and  _570
REMARK  228  A    between atoms: _570  and  _571
REMARK  229  A    between atoms: _571  and  _572
REMARK  230  A    between atoms: _576  and  _578
REMARK  231  A    between atoms: _578  and  _579
REMARK  232  A    between atoms: _578  and  _581
REMARK  233  A    between atoms: _581  and  _582
REMARK  234  A    between atoms: _588  and  _590
REMARK  235  A    between atoms: _590  and  _591
REMARK  236  A    between atoms: _590  and  _593
REMARK  237  A    between atoms: _593  and  _594
REMARK  238  A    between atoms: _600  and  _602
REMARK  239  A    between atoms: _602  and  _603
REMARK  240  A    between atoms: _602  and  _605
REMARK  241  A    between atoms: _605  and  _606
REMARK  242  A    between atoms: _608  and  _610
REMARK  243  A    between atoms: _610  and  _611
REMARK  244  A    between atoms: _610  and  _613
REMARK  245  A    between atoms: _616  and  _618
REMARK  246  A    between atoms: _618  and  _619
REMARK  247  A    between atoms: _618  and  _621
REMARK  248  A    between atoms: _621  and  _622
REMARK  249  A    between atoms: _622  and  _623
REMARK  250  A    between atoms: _623  and  _624
REMARK  251  A    between atoms: _624  and  _625
REMARK  252  A    between atoms: _629  and  _631
REMARK  253  A    between atoms: _631  and  _632
REMARK  254  A    between atoms: _631  and  _634
REMARK  255  A    between atoms: _634  and  _635
REMARK  256  A    between atoms: _641  and  _643
REMARK  257  A    between atoms: _643  and  _644
REMARK  258  A    between atoms: _643  and  _646
REMARK  259  A    between atoms: _646  and  _647
REMARK  260  A    between atoms: _652  and  _654
REMARK  261  A    between atoms: _654  and  _655
REMARK  262  A    between atoms: _654  and  _657
REMARK  263  A    between atoms: _657  and  _658
REMARK  264  A    between atoms: _660  and  _662
REMARK  265  A    between atoms: _662  and  _663
REMARK  266  A    between atoms: _662  and  _665
REMARK  267  A    between atoms: _665  and  _666
REMARK  268  A    between atoms: _668  and  _670
REMARK  269  A    between atoms: _670  and  _671
REMARK  270  A    between atoms: _670  and  _673
REMARK  271  A    between atoms: _677  and  _678
REMARK  272  A    between atoms: _683  and  _685
REMARK  273  A    between atoms: _685  and  _686
REMARK  274  A    between atoms: _685  and  _688
REMARK  275  A    between atoms: _688  and  _689
REMARK  276  A    between atoms: _694  and  _695
REMARK  277  A    between atoms: _697  and  _699
REMARK  278  A    between atoms: _699  and  _700
REMARK  279  A    between atoms: _699  and  _702
REMARK  280  A    between atoms: _702  and  _703
REMARK  281  A    between atoms: _703  and  _704
REMARK  282  A    between atoms: _704  and  _705
REMARK  283  A    between atoms: _714  and  _716
REMARK  284  A    between atoms: _716  and  _717
REMARK  285  A    between atoms: _716  and  _719
REMARK  286  A    between atoms: _719  and  _720
REMARK  287  A    between atoms: _725  and  _726
REMARK  288  A    between atoms: _728  and  _730
REMARK  289  A    between atoms: _730  and  _731
REMARK  290  A    between atoms: _730  and  _733
REMARK  291  A    between atoms: _733  and  _734
REMARK  292  A    between atoms: _740  and  _742
REMARK  293  A    between atoms: _742  and  _743
REMARK  294  A    between atoms: _742  and  _745
REMARK  295  A    between atoms: _745  and  _746
REMARK  296  A    between atoms: _748  and  _750
REMARK  297  A    between atoms: _750  and  _751
REMARK  298  A    between atoms: _750  and  _753
REMARK  299  A    between atoms: _753  and  _754
REMARK  300  A    between atoms: _760  and  _762
REMARK  301  A    between atoms: _762  and  _763
REMARK  302  A    between atoms: _762  and  _765
REMARK  303  A    between atoms: _765  and  _766
REMARK  304  A    between atoms: _766  and  _767
REMARK                            x       y       z     vdW  Elec       q    Type
REMARK                         _______ _______ _______ _____ _____    ______ ____
ROOT
ATOM      1  O   HOH     1      22.624  -3.130 -31.625  0.00  0.00    +0.000 OA
ENDROOT
TORSDOF 0
REMARK  Name = ../refined-set-2016/2xy9/2xy9_pocket.pdb
REMARK  304 active torsions:
REMARK  status: ('A' for Active; 'I' for Inactive)
REMARK    1  A    between atoms: _1  and  _3
REMARK    2  A    between atoms: _3  and  _4
REMARK    3  A    between atoms: _3  and  _6
REMARK    4  A    between atoms: _6  and  _7
REMARK    5  A    between atoms: _12  and  _14
REMARK    6  A    between atoms: _14  and  _15
REMARK    7  A    between atoms: _14  and  _17
REMARK    8  A    between atoms: _17  and  _18
REMARK    9  A    between atoms: _23  and  _25
REMARK   10  A    between atoms: _25  and  _26
REMARK   11  A    between atoms: _25  and  _28
REMARK   12  A    between atoms: _28  and  _29
REMARK   13  A    between atoms: _29  and  _30
REMARK   14  A    between atoms: _33  and  _35
REMARK   15  A    between atoms: _35  and  _36
REMARK   16  A    between atoms: _35  and  _38
REMARK   17  A    between atoms: _38  and  _39
REMARK   18  A    between atoms: _44  and  _45
REMARK   19  A    between atoms: _47  and  _49
REMARK   20  A    between atoms: _49  and  _50
REMARK   21  A    between atoms: _49  and  _52
REMARK   22  A    between atoms: _52  and  _53
REMARK   23  A    between atoms: _56  and  _58
REMARK   24  A    between atoms: _58  and  _59
REMARK   25  A    between atoms: _61  and  _63
REMARK   26  A    between atoms: _63  and  _64
REMARK   27  A    between atoms: _63  and  _66
REMARK   28  A    between atoms: _66  and  _67
REMARK   29  A    between atoms: _72  and  _74
REMARK   30  A    between atoms: _74  and  _75
REMARK   31  A    between atoms: _74  and  _77
REMARK   32  A    between atoms: _77  and  _78
REMARK   33  A    between atoms: _88  and  _90
REMARK   34  A    between atoms: _90  and  _91
REMARK   35  A    between atoms: _90  and  _93
REMARK   36  A    between atoms: _93  and  _94
REMARK   37  A    between atoms: _94  and  _95
REMARK   38  A    between atoms: _100  and  _102
REMARK   39  A    between atoms: _102  and  _103
REMARK   40  A    between atoms: _102  and  _105
REMARK   41  A    between atoms: _105  and  _106
REMARK   42  A    between atoms: _109  and  _111
REMARK   43  A    between atoms: _111  and  _112
REMARK   44  A    between atoms: _111  and  _114
REMARK   45  A    between atoms: _114  and  _115
REMARK   46  A    between atoms: _125  and  _127
REMARK   47  A    between atoms: _127  and  _128
REMARK   48  A    between atoms: _127  and  _130
REMARK   49  A    between atoms: _130  and  _131
REMARK   50  A    between atoms: _133  and  _135
REMARK   51  A    between atoms: _135  and  _136
REMARK   52  A    between atoms: _135  and  _138
REMARK   53  A    between atoms: _138  and  _139
REMARK   54  A    between atoms: _144  and  _146
REMARK   55  A    between atoms: _146  and  _147
REMARK   56  A    between atoms: _146  and  _149
REMARK   57  A    between atoms: _152  and  _154
REMARK   58  A    between atoms: _154  and  _155
REMARK   59  A    between atoms: _154  and  _157
REMARK   60  A    between atoms: _159  and  _161
REMARK   61  A    between atoms: _161  and  _162
REMARK   62  A    between atoms: _161  and  _164
REMARK   63  A    between atoms: _164  and  _165
REMARK   64  A    between atoms: _170  and  _172
REMARK   65  A    between atoms: _172  and  _173
REMARK   66  A    between atoms: _176  and  _178
REMARK   67  A    between atoms: _178  and  _179
REMARK   68  A    between atoms: _178  and  _181
REMARK   69  A    between atoms: _181  and  _182
REMARK   70  A    between atoms: _184  and  _186
REMARK   71  A    between atoms: _186  and  _187
REMARK   72  A    between atoms: _190  and  _192
REMARK   73  A    between atoms: _192  and  _193
REMARK   74  A    between atoms: _192  and  _195
REMARK   75  A    between atoms: _195  and  _196
REMARK   76  A    between atoms: _206  and  _208
REMARK   77  A    between atoms: _208  and  _209
REMARK   78  A    between atoms: _208  and  _211
REMARK   79  A    between atoms: _211  and  _212
REMARK   80  A    between atoms: _215  and  _217
REMARK   81  A    between atoms: _217  and  _218
REMARK   82  A    between atoms: _217  and  _220
REMARK   83  A    between atoms: _220  and  _221
REMARK   84  A    between atoms: _226  and  _227
REMARK   85  A    between atoms: _229  and  _231
REMARK   86  A    between atoms: _231  and  _232
REMARK   87  A    between atoms: _231  and  _234
REMARK   88  A    between atoms: _234  and  _235
REMARK   89  A    between atoms: _235  and  _236
REMARK   90  A    between atoms: _236  and  _237
REMARK   91  A    between atoms: _246  and  _248
REMARK   92  A    between atoms: _248  and  _249
REMARK   93  A    between atoms: _248  and  _251
REMARK   94  A    between atoms: _251  and  _252
REMARK   95  A    between atoms: _255  and  _257
REMARK   96  A    between atoms: _257  and  _258
REMARK   97  A    between atoms: _257  and  _260
REMARK   98  A    between atoms: _260  and  _261
REMARK   99  A    between atoms: _261  and  _262
REMARK  100  A    between atoms: _262  and  _263
REMARK  101  A    between atoms: _263  and  _264
REMARK  102  A    between atoms: _268  and  _270
REMARK  103  A    between atoms: _270  and  _271
REMARK  104  A    between atoms: _270  and  _273
REMARK  105  A    between atoms: _273  and  _274
REMARK  106  A    between atoms: _274  and  _275
REMARK  107  A    between atoms: _280  and  _282
REMARK  108  A    between atoms: _282  and  _283
REMARK  109  A    between atoms: _282  and  _285
REMARK  110  A    between atoms: _285  and  _286
REMARK  111  A    between atoms: _289  and  _291
REMARK  112  A    between atoms: _291  and  _292
REMARK  113  A    between atoms: _291  and  _294
REMARK  114  A    between atoms: _294  and  _295
REMARK  115  A    between atoms: _295  and  _296
REMARK  116  A    between atoms: _299  and  _301
REMARK  117  A    between atoms: _301  and  _302
REMARK  118  A    between atoms: _301  and  _304
REMARK  119  A    between atoms: _304  and  _305
REMARK  120  A    between atoms: _308  and  _310
REMARK  121  A    between atoms: _310  and  _311
REMARK  122  A    between atoms: _310  and  _313
REMARK  123  A    between atoms: _313  and  _314
REMARK  124  A    between atoms: _317  and  _319
REMARK  125  A    between atoms: _319  and  _320
REMARK  126  A    between atoms: _319  and  _322
REMARK  127  A    between atoms: _325  and  _327
REMARK  128  A    between atoms: _327  and  _328
REMARK  129  A    between atoms: _327  and  _330
REMARK  130  A    between atoms: _333  and  _335
REMARK  131  A    between atoms: _335  and  _336
REMARK  132  A    between atoms: _339  and  _341
REMARK  133  A    between atoms: _341  and  _342
REMARK  134  A    between atoms: _341  and  _344
REMARK  135  A    between atoms: _344  and  _345
REMARK  136  A    between atoms: _350  and  _352
REMARK  137  A    between atoms: _352  and  _353
REMARK  138  A    between atoms: _352  and  _355
REMARK  139  A    between atoms: _355  and  _356
REMARK  140  A    between atoms: _360  and  ZN_772
REMARK  141  A    between atoms: _361  and  _363
REMARK  142  A    between atoms: _363  and  _364
REMARK  143  A    between atoms: _363  and  _366
REMARK  144  A    between atoms: _366  and  _367
REMARK  145  A    between atoms: _367  and  _368
REMARK  146  A    between atoms: _371  and  _373
REMARK  147  A    between atoms: _373  and  _374
REMARK  148  A    between atoms: _373  and  _376
REMARK  149  A    between atoms: _376  and  _377
REMARK  150  A    between atoms: _377  and  _378
REMARK  151  A    between atoms: _380  and  _382
REMARK  152  A    between atoms: _382  and  _383
REMARK  153  A    between atoms: _382  and  _385
REMARK  154  A    between atoms: _385  and  _386
REMARK  155  A    between atoms: _390  and  ZN_772
REMARK  156  A    between atoms: _391  and  _393
REMARK  157  A    between atoms: _393  and  _394
REMARK  158  A    between atoms: _393  and  _396
REMARK  159  A    between atoms: _396  and  _397
REMARK  160  A    between atoms: _400  and  _402
REMARK  161  A    between atoms: _402  and  _403
REMARK  162  A    between atoms: _402  and  _405
REMARK  163  A    between atoms: _405  and  _406
REMARK  164  A    between atoms: _411  and  _412
REMARK  165  A    between atoms: _414  and  _416
REMARK  166  A    between atoms: _416  and  _417
REMARK  167  A    between atoms: _416  and  _419
REMARK  168  A    between atoms: _419  and  _420
REMARK  169  A    between atoms: _426  and  _428
REMARK  170  A    between atoms: _428  and  _429
REMARK  171  A    between atoms: _428  and  _431
REMARK  172  A    between atoms: _431  and  _432
REMARK  173  A    between atoms: _437  and  _438
REMARK  174  A    between atoms: _440  and  _442
REMARK  175  A    between atoms: _442  and  _443
REMARK  176  A    between atoms: _442  and  _445
REMARK  177  A    between atoms: _445  and  _446
REMARK  178  A    between atoms: _446  and  _447
REMARK  179  A    between atoms: _447  and  _448
REMARK  180  A    between atoms: _457  and  _459
REMARK  181  A    between atoms: _459  and  _460
REMARK  182  A    between atoms: _459  and  _462
REMARK  183  A    between atoms: _462  and  _463
REMARK  184  A    between atoms: _463  and  _464
REMARK  185  A    between atoms: _467  and  _469
REMARK  186  A    between atoms: _469  and  _470
REMARK  187  A    between atoms: _472  and  _474
REMARK  188  A    between atoms: _474  and  _475
REMARK  189  A    between atoms: _474  and  _477
REMARK  190  A    between atoms: _477  and  _478
REMARK  191  A    between atoms: _484  and  _485
REMARK  192  A    between atoms: _490  and  _492
REMARK  193  A    between atoms: _492  and  _493
REMARK  194  A    between atoms: _495  and  _497
REMARK  195  A    between atoms: _497  and  _498
REMARK  196  A    between atoms: _497  and  _500
REMARK  197  A    between atoms: _500  and  _501
REMARK  198  A    between atoms: _507  and  _509
REMARK  199  A    between atoms: _509  and  _510
REMARK  200  A    between atoms: _509  and  _512
REMARK  201  A    between atoms: _512  and  _513
REMARK  202  A    between atoms: _518  and  _520
REMARK  203  A    between atoms: _520  and  _521
REMARK  204  A    between atoms: _520  and  _523
REMARK  205  A    between atoms: _523  and  _524
REMARK  206  A    between atoms: _524  and  _525
REMARK  207  A    between atoms: _525  and  _526
REMARK  208  A    between atoms: _526  and  ZN_772
REMARK  209  A    between atoms: _528  and  _530
REMARK  210  A    between atoms: _530  and  _531
REMARK  211  A    between atoms: _534  and  _536
REMARK  212  A    between atoms: _536  and  _537
REMARK  213  A    between atoms: _539  and  _541
REMARK  214  A    between atoms: _541  and  _542
REMARK  215  A    between atoms: _541  and  _544
REMARK  216  A    between atoms: _544  and  _545
REMARK  217  A    between atoms: _548  and  _550
REMARK  218  A    between atoms: _550  and  _551
REMARK  219  A    between atoms: _554  and  _556
REMARK  220  A    between atoms: _556  and  _557
REMARK  221  A    between atoms: _556  and  _559
REMARK  222  A    between atoms: _559  and  _560
REMARK  223  A    between atoms: _563  and  _565
REMARK  224  A    between atoms: _565  and  _566
REMARK  225  A    between atoms: _565  and  _568
REMARK  226  A    between atoms: _568  and  _569
REMARK  227  A    between atoms: _569  and  _570
REMARK  228  A    between atoms: _570  and  _571
REMARK  229  A    between atoms: _571  and  _572
REMARK  230  A    between atoms: _576  and  _578
REMARK  231  A    between atoms: _578  and  _579
REMARK  232  A    between atoms: _578  and  _581
REMARK  233  A    between atoms: _581  and  _582
REMARK  234  A    between atoms: _588  and  _590
REMARK  235  A    between atoms: _590  and  _591
REMARK  236  A    between atoms: _590  and  _593
REMARK  237  A    between atoms: _593  and  _594
REMARK  238  A    between atoms: _600  and  _602
REMARK  239  A    between atoms: _602  and  _603
REMARK  240  A    between atoms: _602  and  _605
REMARK  241  A    between atoms: _605  and  _606
REMARK  242  A    between atoms: _608  and  _610
REMARK  243  A    between atoms: _610  and  _611
REMARK  244  A    between atoms: _610  and  _613
REMARK  245  A    between atoms: _616  and  _618
REMARK  246  A    between atoms: _618  and  _619
REMARK  247  A    between atoms: _618  and  _621
REMARK  248  A    between atoms: _621  and  _622
REMARK  249  A    between atoms: _622  and  _623
REMARK  250  A    between atoms: _623  and  _624
REMARK  251  A    between atoms: _624  and  _625
REMARK  252  A    between atoms: _629  and  _631
REMARK  253  A    between atoms: _631  and  _632
REMARK  254  A    between atoms: _631  and  _634
REMARK  255  A    between atoms: _634  and  _635
REMARK  256  A    between atoms: _641  and  _643
REMARK  257  A    between atoms: _643  and  _644
REMARK  258  A    between atoms: _643  and  _646
REMARK  259  A    between atoms: _646  and  _647
REMARK  260  A    between atoms: _652  and  _654
REMARK  261  A    between atoms: _654  and  _655
REMARK  262  A    between atoms: _654  and  _657
REMARK  263  A    between atoms: _657  and  _658
REMARK  264  A    between atoms: _660  and  _662
REMARK  265  A    between atoms: _662  and  _663
REMARK  266  A    between atoms: _662  and  _665
REMARK  267  A    between atoms: _665  and  _666
REMARK  268  A    between atoms: _668  and  _670
REMARK  269  A    between atoms: _670  and  _671
REMARK  270  A    between atoms: _670  and  _673
REMARK  271  A    between atoms: _677  and  _678
REMARK  272  A    between atoms: _683  and  _685
REMARK  273  A    between atoms: _685  and  _686
REMARK  274  A    between atoms: _685  and  _688
REMARK  275  A    between atoms: _688  and  _689
REMARK  276  A    between atoms: _694  and  _695
REMARK  277  A    between atoms: _697  and  _699
REMARK  278  A    between atoms: _699  and  _700
REMARK  279  A    between atoms: _699  and  _702
REMARK  280  A    between atoms: _702  and  _703
REMARK  281  A    between atoms: _703  and  _704
REMARK  282  A    between atoms: _704  and  _705
REMARK  283  A    between atoms: _714  and  _716
REMARK  284  A    between atoms: _716  and  _717
REMARK  285  A    between atoms: _716  and  _719
REMARK  286  A    between atoms: _719  and  _720
REMARK  287  A    between atoms: _725  and  _726
REMARK  288  A    between atoms: _728  and  _730
REMARK  289  A    between atoms: _730  and  _731
REMARK  290  A    between atoms: _730  and  _733
REMARK  291  A    between atoms: _733  and  _734
REMARK  292  A    between atoms: _740  and  _742
REMARK  293  A    between atoms: _742  and  _743
REMARK  294  A    between atoms: _742  and  _745
REMARK  295  A    between atoms: _745  and  _746
REMARK  296  A    between atoms: _748  and  _750
REMARK  297  A    between atoms: _750  and  _751
REMARK  298  A    between atoms: _750  and  _753
REMARK  299  A    between atoms: _753  and  _754
REMARK  300  A    between atoms: _760  and  _762
REMARK  301  A    between atoms: _762  and  _763
REMARK  302  A    between atoms: _762  and  _765
REMARK  303  A    between atoms: _765  and  _766
REMARK  304  A    between atoms: _766  and  _767
REMARK                            x       y       z     vdW  Elec       q    Type
REMARK                         _______ _______ _______ _____ _____    ______ ____
ROOT
ATOM      1  O   HOH     1       8.403  -9.519 -24.428  0.00  0.00    +0.000 OA
ENDROOT
TORSDOF 0
REMARK  Name = ../refined-set-2016/2xy9/2xy9_pocket.pdb
REMARK  304 active torsions:
REMARK  status: ('A' for Active; 'I' for Inactive)
REMARK    1  A    between atoms: _1  and  _3
REMARK    2  A    between atoms: _3  and  _4
REMARK    3  A    between atoms: _3  and  _6
REMARK    4  A    between atoms: _6  and  _7
REMARK    5  A    between atoms: _12  and  _14
REMARK    6  A    between atoms: _14  and  _15
REMARK    7  A    between atoms: _14  and  _17
REMARK    8  A    between atoms: _17  and  _18
REMARK    9  A    between atoms: _23  and  _25
REMARK   10  A    between atoms: _25  and  _26
REMARK   11  A    between atoms: _25  and  _28
REMARK   12  A    between atoms: _28  and  _29
REMARK   13  A    between atoms: _29  and  _30
REMARK   14  A    between atoms: _33  and  _35
REMARK   15  A    between atoms: _35  and  _36
REMARK   16  A    between atoms: _35  and  _38
REMARK   17  A    between atoms: _38  and  _39
REMARK   18  A    between atoms: _44  and  _45
REMARK   19  A    between atoms: _47  and  _49
REMARK   20  A    between atoms: _49  and  _50
REMARK   21  A    between atoms: _49  and  _52
REMARK   22  A    between atoms: _52  and  _53
REMARK   23  A    between atoms: _56  and  _58
REMARK   24  A    between atoms: _58  and  _59
REMARK   25  A    between atoms: _61  and  _63
REMARK   26  A    between atoms: _63  and  _64
REMARK   27  A    between atoms: _63  and  _66
REMARK   28  A    between atoms: _66  and  _67
REMARK   29  A    between atoms: _72  and  _74
REMARK   30  A    between atoms: _74  and  _75
REMARK   31  A    between atoms: _74  and  _77
REMARK   32  A    between atoms: _77  and  _78
REMARK   33  A    between atoms: _88  and  _90
REMARK   34  A    between atoms: _90  and  _91
REMARK   35  A    between atoms: _90  and  _93
REMARK   36  A    between atoms: _93  and  _94
REMARK   37  A    between atoms: _94  and  _95
REMARK   38  A    between atoms: _100  and  _102
REMARK   39  A    between atoms: _102  and  _103
REMARK   40  A    between atoms: _102  and  _105
REMARK   41  A    between atoms: _105  and  _106
REMARK   42  A    between atoms: _109  and  _111
REMARK   43  A    between atoms: _111  and  _112
REMARK   44  A    between atoms: _111  and  _114
REMARK   45  A    between atoms: _114  and  _115
REMARK   46  A    between atoms: _125  and  _127
REMARK   47  A    between atoms: _127  and  _128
REMARK   48  A    between atoms: _127  and  _130
REMARK   49  A    between atoms: _130  and  _131
REMARK   50  A    between atoms: _133  and  _135
REMARK   51  A    between atoms: _135  and  _136
REMARK   52  A    between atoms: _135  and  _138
REMARK   53  A    between atoms: _138  and  _139
REMARK   54  A    between atoms: _144  and  _146
REMARK   55  A    between atoms: _146  and  _147
REMARK   56  A    between atoms: _146  and  _149
REMARK   57  A    between atoms: _152  and  _154
REMARK   58  A    between atoms: _154  and  _155
REMARK   59  A    between atoms: _154  and  _157
REMARK   60  A    between atoms: _159  and  _161
REMARK   61  A    between atoms: _161  and  _162
REMARK   62  A    between atoms: _161  and  _164
REMARK   63  A    between atoms: _164  and  _165
REMARK   64  A    between atoms: _170  and  _172
REMARK   65  A    between atoms: _172  and  _173
REMARK   66  A    between atoms: _176  and  _178
REMARK   67  A    between atoms: _178  and  _179
REMARK   68  A    between atoms: _178  and  _181
REMARK   69  A    between atoms: _181  and  _182
REMARK   70  A    between atoms: _184  and  _186
REMARK   71  A    between atoms: _186  and  _187
REMARK   72  A    between atoms: _190  and  _192
REMARK   73  A    between atoms: _192  and  _193
REMARK   74  A    between atoms: _192  and  _195
REMARK   75  A    between atoms: _195  and  _196
REMARK   76  A    between atoms: _206  and  _208
REMARK   77  A    between atoms: _208  and  _209
REMARK   78  A    between atoms: _208  and  _211
REMARK   79  A    between atoms: _211  and  _212
REMARK   80  A    between atoms: _215  and  _217
REMARK   81  A    between atoms: _217  and  _218
REMARK   82  A    between atoms: _217  and  _220
REMARK   83  A    between atoms: _220  and  _221
REMARK   84  A    between atoms: _226  and  _227
REMARK   85  A    between atoms: _229  and  _231
REMARK   86  A    between atoms: _231  and  _232
REMARK   87  A    between atoms: _231  and  _234
REMARK   88  A    between atoms: _234  and  _235
REMARK   89  A    between atoms: _235  and  _236
REMARK   90  A    between atoms: _236  and  _237
REMARK   91  A    between atoms: _246  and  _248
REMARK   92  A    between atoms: _248  and  _249
REMARK   93  A    between atoms: _248  and  _251
REMARK   94  A    between atoms: _251  and  _252
REMARK   95  A    between atoms: _255  and  _257
REMARK   96  A    between atoms: _257  and  _258
REMARK   97  A    between atoms: _257  and  _260
REMARK   98  A    between atoms: _260  and  _261
REMARK   99  A    between atoms: _261  and  _262
REMARK  100  A    between atoms: _262  and  _263
REMARK  101  A    between atoms: _263  and  _264
REMARK  102  A    between atoms: _268  and  _270
REMARK  103  A    between atoms: _270  and  _271
REMARK  104  A    between atoms: _270  and  _273
REMARK  105  A    between atoms: _273  and  _274
REMARK  106  A    between atoms: _274  and  _275
REMARK  107  A    between atoms: _280  and  _282
REMARK  108  A    between atoms: _282  and  _283
REMARK  109  A    between atoms: _282  and  _285
REMARK  110  A    between atoms: _285  and  _286
REMARK  111  A    between atoms: _289  and  _291
REMARK  112  A    between atoms: _291  and  _292
REMARK  113  A    between atoms: _291  and  _294
REMARK  114  A    between atoms: _294  and  _295
REMARK  115  A    between atoms: _295  and  _296
REMARK  116  A    between atoms: _299  and  _301
REMARK  117  A    between atoms: _301  and  _302
REMARK  118  A    between atoms: _301  and  _304
REMARK  119  A    between atoms: _304  and  _305
REMARK  120  A    between atoms: _308  and  _310
REMARK  121  A    between atoms: _310  and  _311
REMARK  122  A    between atoms: _310  and  _313
REMARK  123  A    between atoms: _313  and  _314
REMARK  124  A    between atoms: _317  and  _319
REMARK  125  A    between atoms: _319  and  _320
REMARK  126  A    between atoms: _319  and  _322
REMARK  127  A    between atoms: _325  and  _327
REMARK  128  A    between atoms: _327  and  _328
REMARK  129  A    between atoms: _327  and  _330
REMARK  130  A    between atoms: _333  and  _335
REMARK  131  A    between atoms: _335  and  _336
REMARK  132  A    between atoms: _339  and  _341
REMARK  133  A    between atoms: _341  and  _342
REMARK  134  A    between atoms: _341  and  _344
REMARK  135  A    between atoms: _344  and  _345
REMARK  136  A    between atoms: _350  and  _352
REMARK  137  A    between atoms: _352  and  _353
REMARK  138  A    between atoms: _352  and  _355
REMARK  139  A    between atoms: _355  and  _356
REMARK  140  A    between atoms: _360  and  ZN_772
REMARK  141  A    between atoms: _361  and  _363
REMARK  142  A    between atoms: _363  and  _364
REMARK  143  A    between atoms: _363  and  _366
REMARK  144  A    between atoms: _366  and  _367
REMARK  145  A    between atoms: _367  and  _368
REMARK  146  A    between atoms: _371  and  _373
REMARK  147  A    between atoms: _373  and  _374
REMARK  148  A    between atoms: _373  and  _376
REMARK  149  A    between atoms: _376  and  _377
REMARK  150  A    between atoms: _377  and  _378
REMARK  151  A    between atoms: _380  and  _382
REMARK  152  A    between atoms: _382  and  _383
REMARK  153  A    between atoms: _382  and  _385
REMARK  154  A    between atoms: _385  and  _386
REMARK  155  A    between atoms: _390  and  ZN_772
REMARK  156  A    between atoms: _391  and  _393
REMARK  157  A    between atoms: _393  and  _394
REMARK  158  A    between atoms: _393  and  _396
REMARK  159  A    between atoms: _396  and  _397
REMARK  160  A    between atoms: _400  and  _402
REMARK  161  A    between atoms: _402  and  _403
REMARK  162  A    between atoms: _402  and  _405
REMARK  163  A    between atoms: _405  and  _406
REMARK  164  A    between atoms: _411  and  _412
REMARK  165  A    between atoms: _414  and  _416
REMARK  166  A    between atoms: _416  and  _417
REMARK  167  A    between atoms: _416  and  _419
REMARK  168  A    between atoms: _419  and  _420
REMARK  169  A    between atoms: _426  and  _428
REMARK  170  A    between atoms: _428  and  _429
REMARK  171  A    between atoms: _428  and  _431
REMARK  172  A    between atoms: _431  and  _432
REMARK  173  A    between atoms: _437  and  _438
REMARK  174  A    between atoms: _440  and  _442
REMARK  175  A    between atoms: _442  and  _443
REMARK  176  A    between atoms: _442  and  _445
REMARK  177  A    between atoms: _445  and  _446
REMARK  178  A    between atoms: _446  and  _447
REMARK  179  A    between atoms: _447  and  _448
REMARK  180  A    between atoms: _457  and  _459
REMARK  181  A    between atoms: _459  and  _460
REMARK  182  A    between atoms: _459  and  _462
REMARK  183  A    between atoms: _462  and  _463
REMARK  184  A    between atoms: _463  and  _464
REMARK  185  A    between atoms: _467  and  _469
REMARK  186  A    between atoms: _469  and  _470
REMARK  187  A    between atoms: _472  and  _474
REMARK  188  A    between atoms: _474  and  _475
REMARK  189  A    between atoms: _474  and  _477
REMARK  190  A    between atoms: _477  and  _478
REMARK  191  A    between atoms: _484  and  _485
REMARK  192  A    between atoms: _490  and  _492
REMARK  193  A    between atoms: _492  and  _493
REMARK  194  A    between atoms: _495  and  _497
REMARK  195  A    between atoms: _497  and  _498
REMARK  196  A    between atoms: _497  and  _500
REMARK  197  A    between atoms: _500  and  _501
REMARK  198  A    between atoms: _507  and  _509
REMARK  199  A    between atoms: _509  and  _510
REMARK  200  A    between atoms: _509  and  _512
REMARK  201  A    between atoms: _512  and  _513
REMARK  202  A    between atoms: _518  and  _520
REMARK  203  A    between atoms: _520  and  _521
REMARK  204  A    between atoms: _520  and  _523
REMARK  205  A    between atoms: _523  and  _524
REMARK  206  A    between atoms: _524  and  _525
REMARK  207  A    between atoms: _525  and  _526
REMARK  208  A    between atoms: _526  and  ZN_772
REMARK  209  A    between atoms: _528  and  _530
REMARK  210  A    between atoms: _530  and  _531
REMARK  211  A    between atoms: _534  and  _536
REMARK  212  A    between atoms: _536  and  _537
REMARK  213  A    between atoms: _539  and  _541
REMARK  214  A    between atoms: _541  and  _542
REMARK  215  A    between atoms: _541  and  _544
REMARK  216  A    between atoms: _544  and  _545
REMARK  217  A    between atoms: _548  and  _550
REMARK  218  A    between atoms: _550  and  _551
REMARK  219  A    between atoms: _554  and  _556
REMARK  220  A    between atoms: _556  and  _557
REMARK  221  A    between atoms: _556  and  _559
REMARK  222  A    between atoms: _559  and  _560
REMARK  223  A    between atoms: _563  and  _565
REMARK  224  A    between atoms: _565  and  _566
REMARK  225  A    between atoms: _565  and  _568
REMARK  226  A    between atoms: _568  and  _569
REMARK  227  A    between atoms: _569  and  _570
REMARK  228  A    between atoms: _570  and  _571
REMARK  229  A    between atoms: _571  and  _572
REMARK  230  A    between atoms: _576  and  _578
REMARK  231  A    between atoms: _578  and  _579
REMARK  232  A    between atoms: _578  and  _581
REMARK  233  A    between atoms: _581  and  _582
REMARK  234  A    between atoms: _588  and  _590
REMARK  235  A    between atoms: _590  and  _591
REMARK  236  A    between atoms: _590  and  _593
REMARK  237  A    between atoms: _593  and  _594
REMARK  238  A    between atoms: _600  and  _602
REMARK  239  A    between atoms: _602  and  _603
REMARK  240  A    between atoms: _602  and  _605
REMARK  241  A    between atoms: _605  and  _606
REMARK  242  A    between atoms: _608  and  _610
REMARK  243  A    between atoms: _610  and  _611
REMARK  244  A    between atoms: _610  and  _613
REMARK  245  A    between atoms: _616  and  _618
REMARK  246  A    between atoms: _618  and  _619
REMARK  247  A    between atoms: _618  and  _621
REMARK  248  A    between atoms: _621  and  _622
REMARK  249  A    between atoms: _622  and  _623
REMARK  250  A    between atoms: _623  and  _624
REMARK  251  A    between atoms: _624  and  _625
REMARK  252  A    between atoms: _629  and  _631
REMARK  253  A    between atoms: _631  and  _632
REMARK  254  A    between atoms: _631  and  _634
REMARK  255  A    between atoms: _634  and  _635
REMARK  256  A    between atoms: _641  and  _643
REMARK  257  A    between atoms: _643  and  _644
REMARK  258  A    between atoms: _643  and  _646
REMARK  259  A    between atoms: _646  and  _647
REMARK  260  A    between atoms: _652  and  _654
REMARK  261  A    between atoms: _654  and  _655
REMARK  262  A    between atoms: _654  and  _657
REMARK  263  A    between atoms: _657  and  _658
REMARK  264  A    between atoms: _660  and  _662
REMARK  265  A    between atoms: _662  and  _663
REMARK  266  A    between atoms: _662  and  _665
REMARK  267  A    between atoms: _665  and  _666
REMARK  268  A    between atoms: _668  and  _670
REMARK  269  A    between atoms: _670  and  _671
REMARK  270  A    between atoms: _670  and  _673
REMARK  271  A    between atoms: _677  and  _678
REMARK  272  A    between atoms: _683  and  _685
REMARK  273  A    between atoms: _685  and  _686
REMARK  274  A    between atoms: _685  and  _688
REMARK  275  A    between atoms: _688  and  _689
REMARK  276  A    between atoms: _694  and  _695
REMARK  277  A    between atoms: _697  and  _699
REMARK  278  A    between atoms: _699  and  _700
REMARK  279  A    between atoms: _699  and  _702
REMARK  280  A    between atoms: _702  and  _703
REMARK  281  A    between atoms: _703  and  _704
REMARK  282  A    between atoms: _704  and  _705
REMARK  283  A    between atoms: _714  and  _716
REMARK  284  A    between atoms: _716  and  _717
REMARK  285  A    between atoms: _716  and  _719
REMARK  286  A    between atoms: _719  and  _720
REMARK  287  A    between atoms: _725  and  _726
REMARK  288  A    between atoms: _728  and  _730
REMARK  289  A    between atoms: _730  and  _731
REMARK  290  A    between atoms: _730  and  _733
REMARK  291  A    between atoms: _733  and  _734
REMARK  292  A    between atoms: _740  and  _742
REMARK  293  A    between atoms: _742  and  _743
REMARK  294  A    between atoms: _742  and  _745
REMARK  295  A    between atoms: _745  and  _746
REMARK  296  A    between atoms: _748  and  _750
REMARK  297  A    between atoms: _750  and  _751
REMARK  298  A    between atoms: _750  and  _753
REMARK  299  A    between atoms: _753  and  _754
REMARK  300  A    between atoms: _760  and  _762
REMARK  301  A    between atoms: _762  and  _763
REMARK  302  A    between atoms: _762  and  _765
REMARK  303  A    between atoms: _765  and  _766
REMARK  304  A    between atoms: _766  and  _767
REMARK                            x       y       z     vdW  Elec       q    Type
REMARK                         _______ _______ _______ _____ _____    ______ ____
ROOT
ATOM      1  O   HOH     1       6.822  -3.608 -13.715  0.00  0.00    +0.000 OA
ENDROOT
TORSDOF 0
REMARK  Name = ../refined-set-2016/2xy9/2xy9_pocket.pdb
REMARK  304 active torsions:
REMARK  status: ('A' for Active; 'I' for Inactive)
REMARK    1  A    between atoms: _1  and  _3
REMARK    2  A    between atoms: _3  and  _4
REMARK    3  A    between atoms: _3  and  _6
REMARK    4  A    between atoms: _6  and  _7
REMARK    5  A    between atoms: _12  and  _14
REMARK    6  A    between atoms: _14  and  _15
REMARK    7  A    between atoms: _14  and  _17
REMARK    8  A    between atoms: _17  and  _18
REMARK    9  A    between atoms: _23  and  _25
REMARK   10  A    between atoms: _25  and  _26
REMARK   11  A    between atoms: _25  and  _28
REMARK   12  A    between atoms: _28  and  _29
REMARK   13  A    between atoms: _29  and  _30
REMARK   14  A    between atoms: _33  and  _35
REMARK   15  A    between atoms: _35  and  _36
REMARK   16  A    between atoms: _35  and  _38
REMARK   17  A    between atoms: _38  and  _39
REMARK   18  A    between atoms: _44  and  _45
REMARK   19  A    between atoms: _47  and  _49
REMARK   20  A    between atoms: _49  and  _50
REMARK   21  A    between atoms: _49  and  _52
REMARK   22  A    between atoms: _52  and  _53
REMARK   23  A    between atoms: _56  and  _58
REMARK   24  A    between atoms: _58  and  _59
REMARK   25  A    between atoms: _61  and  _63
REMARK   26  A    between atoms: _63  and  _64
REMARK   27  A    between atoms: _63  and  _66
REMARK   28  A    between atoms: _66  and  _67
REMARK   29  A    between atoms: _72  and  _74
REMARK   30  A    between atoms: _74  and  _75
REMARK   31  A    between atoms: _74  and  _77
REMARK   32  A    between atoms: _77  and  _78
REMARK   33  A    between atoms: _88  and  _90
REMARK   34  A    between atoms: _90  and  _91
REMARK   35  A    between atoms: _90  and  _93
REMARK   36  A    between atoms: _93  and  _94
REMARK   37  A    between atoms: _94  and  _95
REMARK   38  A    between atoms: _100  and  _102
REMARK   39  A    between atoms: _102  and  _103
REMARK   40  A    between atoms: _102  and  _105
REMARK   41  A    between atoms: _105  and  _106
REMARK   42  A    between atoms: _109  and  _111
REMARK   43  A    between atoms: _111  and  _112
REMARK   44  A    between atoms: _111  and  _114
REMARK   45  A    between atoms: _114  and  _115
REMARK   46  A    between atoms: _125  and  _127
REMARK   47  A    between atoms: _127  and  _128
REMARK   48  A    between atoms: _127  and  _130
REMARK   49  A    between atoms: _130  and  _131
REMARK   50  A    between atoms: _133  and  _135
REMARK   51  A    between atoms: _135  and  _136
REMARK   52  A    between atoms: _135  and  _138
REMARK   53  A    between atoms: _138  and  _139
REMARK   54  A    between atoms: _144  and  _146
REMARK   55  A    between atoms: _146  and  _147
REMARK   56  A    between atoms: _146  and  _149
REMARK   57  A    between atoms: _152  and  _154
REMARK   58  A    between atoms: _154  and  _155
REMARK   59  A    between atoms: _154  and  _157
REMARK   60  A    between atoms: _159  and  _161
REMARK   61  A    between atoms: _161  and  _162
REMARK   62  A    between atoms: _161  and  _164
REMARK   63  A    between atoms: _164  and  _165
REMARK   64  A    between atoms: _170  and  _172
REMARK   65  A    between atoms: _172  and  _173
REMARK   66  A    between atoms: _176  and  _178
REMARK   67  A    between atoms: _178  and  _179
REMARK   68  A    between atoms: _178  and  _181
REMARK   69  A    between atoms: _181  and  _182
REMARK   70  A    between atoms: _184  and  _186
REMARK   71  A    between atoms: _186  and  _187
REMARK   72  A    between atoms: _190  and  _192
REMARK   73  A    between atoms: _192  and  _193
REMARK   74  A    between atoms: _192  and  _195
REMARK   75  A    between atoms: _195  and  _196
REMARK   76  A    between atoms: _206  and  _208
REMARK   77  A    between atoms: _208  and  _209
REMARK   78  A    between atoms: _208  and  _211
REMARK   79  A    between atoms: _211  and  _212
REMARK   80  A    between atoms: _215  and  _217
REMARK   81  A    between atoms: _217  and  _218
REMARK   82  A    between atoms: _217  and  _220
REMARK   83  A    between atoms: _220  and  _221
REMARK   84  A    between atoms: _226  and  _227
REMARK   85  A    between atoms: _229  and  _231
REMARK   86  A    between atoms: _231  and  _232
REMARK   87  A    between atoms: _231  and  _234
REMARK   88  A    between atoms: _234  and  _235
REMARK   89  A    between atoms: _235  and  _236
REMARK   90  A    between atoms: _236  and  _237
REMARK   91  A    between atoms: _246  and  _248
REMARK   92  A    between atoms: _248  and  _249
REMARK   93  A    between atoms: _248  and  _251
REMARK   94  A    between atoms: _251  and  _252
REMARK   95  A    between atoms: _255  and  _257
REMARK   96  A    between atoms: _257  and  _258
REMARK   97  A    between atoms: _257  and  _260
REMARK   98  A    between atoms: _260  and  _261
REMARK   99  A    between atoms: _261  and  _262
REMARK  100  A    between atoms: _262  and  _263
REMARK  101  A    between atoms: _263  and  _264
REMARK  102  A    between atoms: _268  and  _270
REMARK  103  A    between atoms: _270  and  _271
REMARK  104  A    between atoms: _270  and  _273
REMARK  105  A    between atoms: _273  and  _274
REMARK  106  A    between atoms: _274  and  _275
REMARK  107  A    between atoms: _280  and  _282
REMARK  108  A    between atoms: _282  and  _283
REMARK  109  A    between atoms: _282  and  _285
REMARK  110  A    between atoms: _285  and  _286
REMARK  111  A    between atoms: _289  and  _291
REMARK  112  A    between atoms: _291  and  _292
REMARK  113  A    between atoms: _291  and  _294
REMARK  114  A    between atoms: _294  and  _295
REMARK  115  A    between atoms: _295  and  _296
REMARK  116  A    between atoms: _299  and  _301
REMARK  117  A    between atoms: _301  and  _302
REMARK  118  A    between atoms: _301  and  _304
REMARK  119  A    between atoms: _304  and  _305
REMARK  120  A    between atoms: _308  and  _310
REMARK  121  A    between atoms: _310  and  _311
REMARK  122  A    between atoms: _310  and  _313
REMARK  123  A    between atoms: _313  and  _314
REMARK  124  A    between atoms: _317  and  _319
REMARK  125  A    between atoms: _319  and  _320
REMARK  126  A    between atoms: _319  and  _322
REMARK  127  A    between atoms: _325  and  _327
REMARK  128  A    between atoms: _327  and  _328
REMARK  129  A    between atoms: _327  and  _330
REMARK  130  A    between atoms: _333  and  _335
REMARK  131  A    between atoms: _335  and  _336
REMARK  132  A    between atoms: _339  and  _341
REMARK  133  A    between atoms: _341  and  _342
REMARK  134  A    between atoms: _341  and  _344
REMARK  135  A    between atoms: _344  and  _345
REMARK  136  A    between atoms: _350  and  _352
REMARK  137  A    between atoms: _352  and  _353
REMARK  138  A    between atoms: _352  and  _355
REMARK  139  A    between atoms: _355  and  _356
REMARK  140  A    between atoms: _360  and  ZN_772
REMARK  141  A    between atoms: _361  and  _363
REMARK  142  A    between atoms: _363  and  _364
REMARK  143  A    between atoms: _363  and  _366
REMARK  144  A    between atoms: _366  and  _367
REMARK  145  A    between atoms: _367  and  _368
REMARK  146  A    between atoms: _371  and  _373
REMARK  147  A    between atoms: _373  and  _374
REMARK  148  A    between atoms: _373  and  _376
REMARK  149  A    between atoms: _376  and  _377
REMARK  150  A    between atoms: _377  and  _378
REMARK  151  A    between atoms: _380  and  _382
REMARK  152  A    between atoms: _382  and  _383
REMARK  153  A    between atoms: _382  and  _385
REMARK  154  A    between atoms: _385  and  _386
REMARK  155  A    between atoms: _390  and  ZN_772
REMARK  156  A    between atoms: _391  and  _393
REMARK  157  A    between atoms: _393  and  _394
REMARK  158  A    between atoms: _393  and  _396
REMARK  159  A    between atoms: _396  and  _397
REMARK  160  A    between atoms: _400  and  _402
REMARK  161  A    between atoms: _402  and  _403
REMARK  162  A    between atoms: _402  and  _405
REMARK  163  A    between atoms: _405  and  _406
REMARK  164  A    between atoms: _411  and  _412
REMARK  165  A    between atoms: _414  and  _416
REMARK  166  A    between atoms: _416  and  _417
REMARK  167  A    between atoms: _416  and  _419
REMARK  168  A    between atoms: _419  and  _420
REMARK  169  A    between atoms: _426  and  _428
REMARK  170  A    between atoms: _428  and  _429
REMARK  171  A    between atoms: _428  and  _431
REMARK  172  A    between atoms: _431  and  _432
REMARK  173  A    between atoms: _437  and  _438
REMARK  174  A    between atoms: _440  and  _442
REMARK  175  A    between atoms: _442  and  _443
REMARK  176  A    between atoms: _442  and  _445
REMARK  177  A    between atoms: _445  and  _446
REMARK  178  A    between atoms: _446  and  _447
REMARK  179  A    between atoms: _447  and  _448
REMARK  180  A    between atoms: _457  and  _459
REMARK  181  A    between atoms: _459  and  _460
REMARK  182  A    between atoms: _459  and  _462
REMARK  183  A    between atoms: _462  and  _463
REMARK  184  A    between atoms: _463  and  _464
REMARK  185  A    between atoms: _467  and  _469
REMARK  186  A    between atoms: _469  and  _470
REMARK  187  A    between atoms: _472  and  _474
REMARK  188  A    between atoms: _474  and  _475
REMARK  189  A    between atoms: _474  and  _477
REMARK  190  A    between atoms: _477  and  _478
REMARK  191  A    between atoms: _484  and  _485
REMARK  192  A    between atoms: _490  and  _492
REMARK  193  A    between atoms: _492  and  _493
REMARK  194  A    between atoms: _495  and  _497
REMARK  195  A    between atoms: _497  and  _498
REMARK  196  A    between atoms: _497  and  _500
REMARK  197  A    between atoms: _500  and  _501
REMARK  198  A    between atoms: _507  and  _509
REMARK  199  A    between atoms: _509  and  _510
REMARK  200  A    between atoms: _509  and  _512
REMARK  201  A    between atoms: _512  and  _513
REMARK  202  A    between atoms: _518  and  _520
REMARK  203  A    between atoms: _520  and  _521
REMARK  204  A    between atoms: _520  and  _523
REMARK  205  A    between atoms: _523  and  _524
REMARK  206  A    between atoms: _524  and  _525
REMARK  207  A    between atoms: _525  and  _526
REMARK  208  A    between atoms: _526  and  ZN_772
REMARK  209  A    between atoms: _528  and  _530
REMARK  210  A    between atoms: _530  and  _531
REMARK  211  A    between atoms: _534  and  _536
REMARK  212  A    between atoms: _536  and  _537
REMARK  213  A    between atoms: _539  and  _541
REMARK  214  A    between atoms: _541  and  _542
REMARK  215  A    between atoms: _541  and  _544
REMARK  216  A    between atoms: _544  and  _545
REMARK  217  A    between atoms: _548  and  _550
REMARK  218  A    between atoms: _550  and  _551
REMARK  219  A    between atoms: _554  and  _556
REMARK  220  A    between atoms: _556  and  _557
REMARK  221  A    between atoms: _556  and  _559
REMARK  222  A    between atoms: _559  and  _560
REMARK  223  A    between atoms: _563  and  _565
REMARK  224  A    between atoms: _565  and  _566
REMARK  225  A    between atoms: _565  and  _568
REMARK  226  A    between atoms: _568  and  _569
REMARK  227  A    between atoms: _569  and  _570
REMARK  228  A    between atoms: _570  and  _571
REMARK  229  A    between atoms: _571  and  _572
REMARK  230  A    between atoms: _576  and  _578
REMARK  231  A    between atoms: _578  and  _579
REMARK  232  A    between atoms: _578  and  _581
REMARK  233  A    between atoms: _581  and  _582
REMARK  234  A    between atoms: _588  and  _590
REMARK  235  A    between atoms: _590  and  _591
REMARK  236  A    between atoms: _590  and  _593
REMARK  237  A    between atoms: _593  and  _594
REMARK  238  A    between atoms: _600  and  _602
REMARK  239  A    between atoms: _602  and  _603
REMARK  240  A    between atoms: _602  and  _605
REMARK  241  A    between atoms: _605  and  _606
REMARK  242  A    between atoms: _608  and  _610
REMARK  243  A    between atoms: _610  and  _611
REMARK  244  A    between atoms: _610  and  _613
REMARK  245  A    between atoms: _616  and  _618
REMARK  246  A    between atoms: _618  and  _619
REMARK  247  A    between atoms: _618  and  _621
REMARK  248  A    between atoms: _621  and  _622
REMARK  249  A    between atoms: _622  and  _623
REMARK  250  A    between atoms: _623  and  _624
REMARK  251  A    between atoms: _624  and  _625
REMARK  252  A    between atoms: _629  and  _631
REMARK  253  A    between atoms: _631  and  _632
REMARK  254  A    between atoms: _631  and  _634
REMARK  255  A    between atoms: _634  and  _635
REMARK  256  A    between atoms: _641  and  _643
REMARK  257  A    between atoms: _643  and  _644
REMARK  258  A    between atoms: _643  and  _646
REMARK  259  A    between atoms: _646  and  _647
REMARK  260  A    between atoms: _652  and  _654
REMARK  261  A    between atoms: _654  and  _655
REMARK  262  A    between atoms: _654  and  _657
REMARK  263  A    between atoms: _657  and  _658
REMARK  264  A    between atoms: _660  and  _662
REMARK  265  A    between atoms: _662  and  _663
REMARK  266  A    between atoms: _662  and  _665
REMARK  267  A    between atoms: _665  and  _666
REMARK  268  A    between atoms: _668  and  _670
REMARK  269  A    between atoms: _670  and  _671
REMARK  270  A    between atoms: _670  and  _673
REMARK  271  A    between atoms: _677  and  _678
REMARK  272  A    between atoms: _683  and  _685
REMARK  273  A    between atoms: _685  and  _686
REMARK  274  A    between atoms: _685  and  _688
REMARK  275  A    between atoms: _688  and  _689
REMARK  276  A    between atoms: _694  and  _695
REMARK  277  A    between atoms: _697  and  _699
REMARK  278  A    between atoms: _699  and  _700
REMARK  279  A    between atoms: _699  and  _702
REMARK  280  A    between atoms: _702  and  _703
REMARK  281  A    between atoms: _703  and  _704
REMARK  282  A    between atoms: _704  and  _705
REMARK  283  A    between atoms: _714  and  _716
REMARK  284  A    between atoms: _716  and  _717
REMARK  285  A    between atoms: _716  and  _719
REMARK  286  A    between atoms: _719  and  _720
REMARK  287  A    between atoms: _725  and  _726
REMARK  288  A    between atoms: _728  and  _730
REMARK  289  A    between atoms: _730  and  _731
REMARK  290  A    between atoms: _730  and  _733
REMARK  291  A    between atoms: _733  and  _734
REMARK  292  A    between atoms: _740  and  _742
REMARK  293  A    between atoms: _742  and  _743
REMARK  294  A    between atoms: _742  and  _745
REMARK  295  A    between atoms: _745  and  _746
REMARK  296  A    between atoms: _748  and  _750
REMARK  297  A    between atoms: _750  and  _751
REMARK  298  A    between atoms: _750  and  _753
REMARK  299  A    between atoms: _753  and  _754
REMARK  300  A    between atoms: _760  and  _762
REMARK  301  A    between atoms: _762  and  _763
REMARK  302  A    between atoms: _762  and  _765
REMARK  303  A    between atoms: _765  and  _766
REMARK  304  A    between atoms: _766  and  _767
REMARK                            x       y       z     vdW  Elec       q    Type
REMARK                         _______ _______ _______ _____ _____    ______ ____
ROOT
ATOM      1  O   HOH     1      13.777   5.661 -18.954  0.00  0.00    +0.000 OA
ENDROOT
TORSDOF 0
REMARK  Name = ../refined-set-2016/2xy9/2xy9_pocket.pdb
REMARK  304 active torsions:
REMARK  status: ('A' for Active; 'I' for Inactive)
REMARK    1  A    between atoms: _1  and  _3
REMARK    2  A    between atoms: _3  and  _4
REMARK    3  A    between atoms: _3  and  _6
REMARK    4  A    between atoms: _6  and  _7
REMARK    5  A    between atoms: _12  and  _14
REMARK    6  A    between atoms: _14  and  _15
REMARK    7  A    between atoms: _14  and  _17
REMARK    8  A    between atoms: _17  and  _18
REMARK    9  A    between atoms: _23  and  _25
REMARK   10  A    between atoms: _25  and  _26
REMARK   11  A    between atoms: _25  and  _28
REMARK   12  A    between atoms: _28  and  _29
REMARK   13  A    between atoms: _29  and  _30
REMARK   14  A    between atoms: _33  and  _35
REMARK   15  A    between atoms: _35  and  _36
REMARK   16  A    between atoms: _35  and  _38
REMARK   17  A    between atoms: _38  and  _39
REMARK   18  A    between atoms: _44  and  _45
REMARK   19  A    between atoms: _47  and  _49
REMARK   20  A    between atoms: _49  and  _50
REMARK   21  A    between atoms: _49  and  _52
REMARK   22  A    between atoms: _52  and  _53
REMARK   23  A    between atoms: _56  and  _58
REMARK   24  A    between atoms: _58  and  _59
REMARK   25  A    between atoms: _61  and  _63
REMARK   26  A    between atoms: _63  and  _64
REMARK   27  A    between atoms: _63  and  _66
REMARK   28  A    between atoms: _66  and  _67
REMARK   29  A    between atoms: _72  and  _74
REMARK   30  A    between atoms: _74  and  _75
REMARK   31  A    between atoms: _74  and  _77
REMARK   32  A    between atoms: _77  and  _78
REMARK   33  A    between atoms: _88  and  _90
REMARK   34  A    between atoms: _90  and  _91
REMARK   35  A    between atoms: _90  and  _93
REMARK   36  A    between atoms: _93  and  _94
REMARK   37  A    between atoms: _94  and  _95
REMARK   38  A    between atoms: _100  and  _102
REMARK   39  A    between atoms: _102  and  _103
REMARK   40  A    between atoms: _102  and  _105
REMARK   41  A    between atoms: _105  and  _106
REMARK   42  A    between atoms: _109  and  _111
REMARK   43  A    between atoms: _111  and  _112
REMARK   44  A    between atoms: _111  and  _114
REMARK   45  A    between atoms: _114  and  _115
REMARK   46  A    between atoms: _125  and  _127
REMARK   47  A    between atoms: _127  and  _128
REMARK   48  A    between atoms: _127  and  _130
REMARK   49  A    between atoms: _130  and  _131
REMARK   50  A    between atoms: _133  and  _135
REMARK   51  A    between atoms: _135  and  _136
REMARK   52  A    between atoms: _135  and  _138
REMARK   53  A    between atoms: _138  and  _139
REMARK   54  A    between atoms: _144  and  _146
REMARK   55  A    between atoms: _146  and  _147
REMARK   56  A    between atoms: _146  and  _149
REMARK   57  A    between atoms: _152  and  _154
REMARK   58  A    between atoms: _154  and  _155
REMARK   59  A    between atoms: _154  and  _157
REMARK   60  A    between atoms: _159  and  _161
REMARK   61  A    between atoms: _161  and  _162
REMARK   62  A    between atoms: _161  and  _164
REMARK   63  A    between atoms: _164  and  _165
REMARK   64  A    between atoms: _170  and  _172
REMARK   65  A    between atoms: _172  and  _173
REMARK   66  A    between atoms: _176  and  _178
REMARK   67  A    between atoms: _178  and  _179
REMARK   68  A    between atoms: _178  and  _181
REMARK   69  A    between atoms: _181  and  _182
REMARK   70  A    between atoms: _184  and  _186
REMARK   71  A    between atoms: _186  and  _187
REMARK   72  A    between atoms: _190  and  _192
REMARK   73  A    between atoms: _192  and  _193
REMARK   74  A    between atoms: _192  and  _195
REMARK   75  A    between atoms: _195  and  _196
REMARK   76  A    between atoms: _206  and  _208
REMARK   77  A    between atoms: _208  and  _209
REMARK   78  A    between atoms: _208  and  _211
REMARK   79  A    between atoms: _211  and  _212
REMARK   80  A    between atoms: _215  and  _217
REMARK   81  A    between atoms: _217  and  _218
REMARK   82  A    between atoms: _217  and  _220
REMARK   83  A    between atoms: _220  and  _221
REMARK   84  A    between atoms: _226  and  _227
REMARK   85  A    between atoms: _229  and  _231
REMARK   86  A    between atoms: _231  and  _232
REMARK   87  A    between atoms: _231  and  _234
REMARK   88  A    between atoms: _234  and  _235
REMARK   89  A    between atoms: _235  and  _236
REMARK   90  A    between atoms: _236  and  _237
REMARK   91  A    between atoms: _246  and  _248
REMARK   92  A    between atoms: _248  and  _249
REMARK   93  A    between atoms: _248  and  _251
REMARK   94  A    between atoms: _251  and  _252
REMARK   95  A    between atoms: _255  and  _257
REMARK   96  A    between atoms: _257  and  _258
REMARK   97  A    between atoms: _257  and  _260
REMARK   98  A    between atoms: _260  and  _261
REMARK   99  A    between atoms: _261  and  _262
REMARK  100  A    between atoms: _262  and  _263
REMARK  101  A    between atoms: _263  and  _264
REMARK  102  A    between atoms: _268  and  _270
REMARK  103  A    between atoms: _270  and  _271
REMARK  104  A    between atoms: _270  and  _273
REMARK  105  A    between atoms: _273  and  _274
REMARK  106  A    between atoms: _274  and  _275
REMARK  107  A    between atoms: _280  and  _282
REMARK  108  A    between atoms: _282  and  _283
REMARK  109  A    between atoms: _282  and  _285
REMARK  110  A    between atoms: _285  and  _286
REMARK  111  A    between atoms: _289  and  _291
REMARK  112  A    between atoms: _291  and  _292
REMARK  113  A    between atoms: _291  and  _294
REMARK  114  A    between atoms: _294  and  _295
REMARK  115  A    between atoms: _295  and  _296
REMARK  116  A    between atoms: _299  and  _301
REMARK  117  A    between atoms: _301  and  _302
REMARK  118  A    between atoms: _301  and  _304
REMARK  119  A    between atoms: _304  and  _305
REMARK  120  A    between atoms: _308  and  _310
REMARK  121  A    between atoms: _310  and  _311
REMARK  122  A    between atoms: _310  and  _313
REMARK  123  A    between atoms: _313  and  _314
REMARK  124  A    between atoms: _317  and  _319
REMARK  125  A    between atoms: _319  and  _320
REMARK  126  A    between atoms: _319  and  _322
REMARK  127  A    between atoms: _325  and  _327
REMARK  128  A    between atoms: _327  and  _328
REMARK  129  A    between atoms: _327  and  _330
REMARK  130  A    between atoms: _333  and  _335
REMARK  131  A    between atoms: _335  and  _336
REMARK  132  A    between atoms: _339  and  _341
REMARK  133  A    between atoms: _341  and  _342
REMARK  134  A    between atoms: _341  and  _344
REMARK  135  A    between atoms: _344  and  _345
REMARK  136  A    between atoms: _350  and  _352
REMARK  137  A    between atoms: _352  and  _353
REMARK  138  A    between atoms: _352  and  _355
REMARK  139  A    between atoms: _355  and  _356
REMARK  140  A    between atoms: _360  and  ZN_772
REMARK  141  A    between atoms: _361  and  _363
REMARK  142  A    between atoms: _363  and  _364
REMARK  143  A    between atoms: _363  and  _366
REMARK  144  A    between atoms: _366  and  _367
REMARK  145  A    between atoms: _367  and  _368
REMARK  146  A    between atoms: _371  and  _373
REMARK  147  A    between atoms: _373  and  _374
REMARK  148  A    between atoms: _373  and  _376
REMARK  149  A    between atoms: _376  and  _377
REMARK  150  A    between atoms: _377  and  _378
REMARK  151  A    between atoms: _380  and  _382
REMARK  152  A    between atoms: _382  and  _383
REMARK  153  A    between atoms: _382  and  _385
REMARK  154  A    between atoms: _385  and  _386
REMARK  155  A    between atoms: _390  and  ZN_772
REMARK  156  A    between atoms: _391  and  _393
REMARK  157  A    between atoms: _393  and  _394
REMARK  158  A    between atoms: _393  and  _396
REMARK  159  A    between atoms: _396  and  _397
REMARK  160  A    between atoms: _400  and  _402
REMARK  161  A    between atoms: _402  and  _403
REMARK  162  A    between atoms: _402  and  _405
REMARK  163  A    between atoms: _405  and  _406
REMARK  164  A    between atoms: _411  and  _412
REMARK  165  A    between atoms: _414  and  _416
REMARK  166  A    between atoms: _416  and  _417
REMARK  167  A    between atoms: _416  and  _419
REMARK  168  A    between atoms: _419  and  _420
REMARK  169  A    between atoms: _426  and  _428
REMARK  170  A    between atoms: _428  and  _429
REMARK  171  A    between atoms: _428  and  _431
REMARK  172  A    between atoms: _431  and  _432
REMARK  173  A    between atoms: _437  and  _438
REMARK  174  A    between atoms: _440  and  _442
REMARK  175  A    between atoms: _442  and  _443
REMARK  176  A    between atoms: _442  and  _445
REMARK  177  A    between atoms: _445  and  _446
REMARK  178  A    between atoms: _446  and  _447
REMARK  179  A    between atoms: _447  and  _448
REMARK  180  A    between atoms: _457  and  _459
REMARK  181  A    between atoms: _459  and  _460
REMARK  182  A    between atoms: _459  and  _462
REMARK  183  A    between atoms: _462  and  _463
REMARK  184  A    between atoms: _463  and  _464
REMARK  185  A    between atoms: _467  and  _469
REMARK  186  A    between atoms: _469  and  _470
REMARK  187  A    between atoms: _472  and  _474
REMARK  188  A    between atoms: _474  and  _475
REMARK  189  A    between atoms: _474  and  _477
REMARK  190  A    between atoms: _477  and  _478
REMARK  191  A    between atoms: _484  and  _485
REMARK  192  A    between atoms: _490  and  _492
REMARK  193  A    between atoms: _492  and  _493
REMARK  194  A    between atoms: _495  and  _497
REMARK  195  A    between atoms: _497  and  _498
REMARK  196  A    between atoms: _497  and  _500
REMARK  197  A    between atoms: _500  and  _501
REMARK  198  A    between atoms: _507  and  _509
REMARK  199  A    between atoms: _509  and  _510
REMARK  200  A    between atoms: _509  and  _512
REMARK  201  A    between atoms: _512  and  _513
REMARK  202  A    between atoms: _518  and  _520
REMARK  203  A    between atoms: _520  and  _521
REMARK  204  A    between atoms: _520  and  _523
REMARK  205  A    between atoms: _523  and  _524
REMARK  206  A    between atoms: _524  and  _525
REMARK  207  A    between atoms: _525  and  _526
REMARK  208  A    between atoms: _526  and  ZN_772
REMARK  209  A    between atoms: _528  and  _530
REMARK  210  A    between atoms: _530  and  _531
REMARK  211  A    between atoms: _534  and  _536
REMARK  212  A    between atoms: _536  and  _537
REMARK  213  A    between atoms: _539  and  _541
REMARK  214  A    between atoms: _541  and  _542
REMARK  215  A    between atoms: _541  and  _544
REMARK  216  A    between atoms: _544  and  _545
REMARK  217  A    between atoms: _548  and  _550
REMARK  218  A    between atoms: _550  and  _551
REMARK  219  A    between atoms: _554  and  _556
REMARK  220  A    between atoms: _556  and  _557
REMARK  221  A    between atoms: _556  and  _559
REMARK  222  A    between atoms: _559  and  _560
REMARK  223  A    between atoms: _563  and  _565
REMARK  224  A    between atoms: _565  and  _566
REMARK  225  A    between atoms: _565  and  _568
REMARK  226  A    between atoms: _568  and  _569
REMARK  227  A    between atoms: _569  and  _570
REMARK  228  A    between atoms: _570  and  _571
REMARK  229  A    between atoms: _571  and  _572
REMARK  230  A    between atoms: _576  and  _578
REMARK  231  A    between atoms: _578  and  _579
REMARK  232  A    between atoms: _578  and  _581
REMARK  233  A    between atoms: _581  and  _582
REMARK  234  A    between atoms: _588  and  _590
REMARK  235  A    between atoms: _590  and  _591
REMARK  236  A    between atoms: _590  and  _593
REMARK  237  A    between atoms: _593  and  _594
REMARK  238  A    between atoms: _600  and  _602
REMARK  239  A    between atoms: _602  and  _603
REMARK  240  A    between atoms: _602  and  _605
REMARK  241  A    between atoms: _605  and  _606
REMARK  242  A    between atoms: _608  and  _610
REMARK  243  A    between atoms: _610  and  _611
REMARK  244  A    between atoms: _610  and  _613
REMARK  245  A    between atoms: _616  and  _618
REMARK  246  A    between atoms: _618  and  _619
REMARK  247  A    between atoms: _618  and  _621
REMARK  248  A    between atoms: _621  and  _622
REMARK  249  A    between atoms: _622  and  _623
REMARK  250  A    between atoms: _623  and  _624
REMARK  251  A    between atoms: _624  and  _625
REMARK  252  A    between atoms: _629  and  _631
REMARK  253  A    between atoms: _631  and  _632
REMARK  254  A    between atoms: _631  and  _634
REMARK  255  A    between atoms: _634  and  _635
REMARK  256  A    between atoms: _641  and  _643
REMARK  257  A    between atoms: _643  and  _644
REMARK  258  A    between atoms: _643  and  _646
REMARK  259  A    between atoms: _646  and  _647
REMARK  260  A    between atoms: _652  and  _654
REMARK  261  A    between atoms: _654  and  _655
REMARK  262  A    between atoms: _654  and  _657
REMARK  263  A    between atoms: _657  and  _658
REMARK  264  A    between atoms: _660  and  _662
REMARK  265  A    between atoms: _662  and  _663
REMARK  266  A    between atoms: _662  and  _665
REMARK  267  A    between atoms: _665  and  _666
REMARK  268  A    between atoms: _668  and  _670
REMARK  269  A    between atoms: _670  and  _671
REMARK  270  A    between atoms: _670  and  _673
REMARK  271  A    between atoms: _677  and  _678
REMARK  272  A    between atoms: _683  and  _685
REMARK  273  A    between atoms: _685  and  _686
REMARK  274  A    between atoms: _685  and  _688
REMARK  275  A    between atoms: _688  and  _689
REMARK  276  A    between atoms: _694  and  _695
REMARK  277  A    between atoms: _697  and  _699
REMARK  278  A    between atoms: _699  and  _700
REMARK  279  A    between atoms: _699  and  _702
REMARK  280  A    between atoms: _702  and  _703
REMARK  281  A    between atoms: _703  and  _704
REMARK  282  A    between atoms: _704  and  _705
REMARK  283  A    between atoms: _714  and  _716
REMARK  284  A    between atoms: _716  and  _717
REMARK  285  A    between atoms: _716  and  _719
REMARK  286  A    between atoms: _719  and  _720
REMARK  287  A    between atoms: _725  and  _726
REMARK  288  A    between atoms: _728  and  _730
REMARK  289  A    between atoms: _730  and  _731
REMARK  290  A    between atoms: _730  and  _733
REMARK  291  A    between atoms: _733  and  _734
REMARK  292  A    between atoms: _740  and  _742
REMARK  293  A    between atoms: _742  and  _743
REMARK  294  A    between atoms: _742  and  _745
REMARK  295  A    between atoms: _745  and  _746
REMARK  296  A    between atoms: _748  and  _750
REMARK  297  A    between atoms: _750  and  _751
REMARK  298  A    between atoms: _750  and  _753
REMARK  299  A    between atoms: _753  and  _754
REMARK  300  A    between atoms: _760  and  _762
REMARK  301  A    between atoms: _762  and  _763
REMARK  302  A    between atoms: _762  and  _765
REMARK  303  A    between atoms: _765  and  _766
REMARK  304  A    between atoms: _766  and  _767
REMARK                            x       y       z     vdW  Elec       q    Type
REMARK                         _______ _______ _______ _____ _____    ______ ____
ROOT
ATOM      1  O   HOH     1      17.502   0.016 -27.641  0.00  0.00    +0.000 OA
ENDROOT
TORSDOF 0
REMARK  Name = ../refined-set-2016/2xy9/2xy9_pocket.pdb
REMARK  304 active torsions:
REMARK  status: ('A' for Active; 'I' for Inactive)
REMARK    1  A    between atoms: _1  and  _3
REMARK    2  A    between atoms: _3  and  _4
REMARK    3  A    between atoms: _3  and  _6
REMARK    4  A    between atoms: _6  and  _7
REMARK    5  A    between atoms: _12  and  _14
REMARK    6  A    between atoms: _14  and  _15
REMARK    7  A    between atoms: _14  and  _17
REMARK    8  A    between atoms: _17  and  _18
REMARK    9  A    between atoms: _23  and  _25
REMARK   10  A    between atoms: _25  and  _26
REMARK   11  A    between atoms: _25  and  _28
REMARK   12  A    between atoms: _28  and  _29
REMARK   13  A    between atoms: _29  and  _30
REMARK   14  A    between atoms: _33  and  _35
REMARK   15  A    between atoms: _35  and  _36
REMARK   16  A    between atoms: _35  and  _38
REMARK   17  A    between atoms: _38  and  _39
REMARK   18  A    between atoms: _44  and  _45
REMARK   19  A    between atoms: _47  and  _49
REMARK   20  A    between atoms: _49  and  _50
REMARK   21  A    between atoms: _49  and  _52
REMARK   22  A    between atoms: _52  and  _53
REMARK   23  A    between atoms: _56  and  _58
REMARK   24  A    between atoms: _58  and  _59
REMARK   25  A    between atoms: _61  and  _63
REMARK   26  A    between atoms: _63  and  _64
REMARK   27  A    between atoms: _63  and  _66
REMARK   28  A    between atoms: _66  and  _67
REMARK   29  A    between atoms: _72  and  _74
REMARK   30  A    between atoms: _74  and  _75
REMARK   31  A    between atoms: _74  and  _77
REMARK   32  A    between atoms: _77  and  _78
REMARK   33  A    between atoms: _88  and  _90
REMARK   34  A    between atoms: _90  and  _91
REMARK   35  A    between atoms: _90  and  _93
REMARK   36  A    between atoms: _93  and  _94
REMARK   37  A    between atoms: _94  and  _95
REMARK   38  A    between atoms: _100  and  _102
REMARK   39  A    between atoms: _102  and  _103
REMARK   40  A    between atoms: _102  and  _105
REMARK   41  A    between atoms: _105  and  _106
REMARK   42  A    between atoms: _109  and  _111
REMARK   43  A    between atoms: _111  and  _112
REMARK   44  A    between atoms: _111  and  _114
REMARK   45  A    between atoms: _114  and  _115
REMARK   46  A    between atoms: _125  and  _127
REMARK   47  A    between atoms: _127  and  _128
REMARK   48  A    between atoms: _127  and  _130
REMARK   49  A    between atoms: _130  and  _131
REMARK   50  A    between atoms: _133  and  _135
REMARK   51  A    between atoms: _135  and  _136
REMARK   52  A    between atoms: _135  and  _138
REMARK   53  A    between atoms: _138  and  _139
REMARK   54  A    between atoms: _144  and  _146
REMARK   55  A    between atoms: _146  and  _147
REMARK   56  A    between atoms: _146  and  _149
REMARK   57  A    between atoms: _152  and  _154
REMARK   58  A    between atoms: _154  and  _155
REMARK   59  A    between atoms: _154  and  _157
REMARK   60  A    between atoms: _159  and  _161
REMARK   61  A    between atoms: _161  and  _162
REMARK   62  A    between atoms: _161  and  _164
REMARK   63  A    between atoms: _164  and  _165
REMARK   64  A    between atoms: _170  and  _172
REMARK   65  A    between atoms: _172  and  _173
REMARK   66  A    between atoms: _176  and  _178
REMARK   67  A    between atoms: _178  and  _179
REMARK   68  A    between atoms: _178  and  _181
REMARK   69  A    between atoms: _181  and  _182
REMARK   70  A    between atoms: _184  and  _186
REMARK   71  A    between atoms: _186  and  _187
REMARK   72  A    between atoms: _190  and  _192
REMARK   73  A    between atoms: _192  and  _193
REMARK   74  A    between atoms: _192  and  _195
REMARK   75  A    between atoms: _195  and  _196
REMARK   76  A    between atoms: _206  and  _208
REMARK   77  A    between atoms: _208  and  _209
REMARK   78  A    between atoms: _208  and  _211
REMARK   79  A    between atoms: _211  and  _212
REMARK   80  A    between atoms: _215  and  _217
REMARK   81  A    between atoms: _217  and  _218
REMARK   82  A    between atoms: _217  and  _220
REMARK   83  A    between atoms: _220  and  _221
REMARK   84  A    between atoms: _226  and  _227
REMARK   85  A    between atoms: _229  and  _231
REMARK   86  A    between atoms: _231  and  _232
REMARK   87  A    between atoms: _231  and  _234
REMARK   88  A    between atoms: _234  and  _235
REMARK   89  A    between atoms: _235  and  _236
REMARK   90  A    between atoms: _236  and  _237
REMARK   91  A    between atoms: _246  and  _248
REMARK   92  A    between atoms: _248  and  _249
REMARK   93  A    between atoms: _248  and  _251
REMARK   94  A    between atoms: _251  and  _252
REMARK   95  A    between atoms: _255  and  _257
REMARK   96  A    between atoms: _257  and  _258
REMARK   97  A    between atoms: _257  and  _260
REMARK   98  A    between atoms: _260  and  _261
REMARK   99  A    between atoms: _261  and  _262
REMARK  100  A    between atoms: _262  and  _263
REMARK  101  A    between atoms: _263  and  _264
REMARK  102  A    between atoms: _268  and  _270
REMARK  103  A    between atoms: _270  and  _271
REMARK  104  A    between atoms: _270  and  _273
REMARK  105  A    between atoms: _273  and  _274
REMARK  106  A    between atoms: _274  and  _275
REMARK  107  A    between atoms: _280  and  _282
REMARK  108  A    between atoms: _282  and  _283
REMARK  109  A    between atoms: _282  and  _285
REMARK  110  A    between atoms: _285  and  _286
REMARK  111  A    between atoms: _289  and  _291
REMARK  112  A    between atoms: _291  and  _292
REMARK  113  A    between atoms: _291  and  _294
REMARK  114  A    between atoms: _294  and  _295
REMARK  115  A    between atoms: _295  and  _296
REMARK  116  A    between atoms: _299  and  _301
REMARK  117  A    between atoms: _301  and  _302
REMARK  118  A    between atoms: _301  and  _304
REMARK  119  A    between atoms: _304  and  _305
REMARK  120  A    between atoms: _308  and  _310
REMARK  121  A    between atoms: _310  and  _311
REMARK  122  A    between atoms: _310  and  _313
REMARK  123  A    between atoms: _313  and  _314
REMARK  124  A    between atoms: _317  and  _319
REMARK  125  A    between atoms: _319  and  _320
REMARK  126  A    between atoms: _319  and  _322
REMARK  127  A    between atoms: _325  and  _327
REMARK  128  A    between atoms: _327  and  _328
REMARK  129  A    between atoms: _327  and  _330
REMARK  130  A    between atoms: _333  and  _335
REMARK  131  A    between atoms: _335  and  _336
REMARK  132  A    between atoms: _339  and  _341
REMARK  133  A    between atoms: _341  and  _342
REMARK  134  A    between atoms: _341  and  _344
REMARK  135  A    between atoms: _344  and  _345
REMARK  136  A    between atoms: _350  and  _352
REMARK  137  A    between atoms: _352  and  _353
REMARK  138  A    between atoms: _352  and  _355
REMARK  139  A    between atoms: _355  and  _356
REMARK  140  A    between atoms: _360  and  ZN_772
REMARK  141  A    between atoms: _361  and  _363
REMARK  142  A    between atoms: _363  and  _364
REMARK  143  A    between atoms: _363  and  _366
REMARK  144  A    between atoms: _366  and  _367
REMARK  145  A    between atoms: _367  and  _368
REMARK  146  A    between atoms: _371  and  _373
REMARK  147  A    between atoms: _373  and  _374
REMARK  148  A    between atoms: _373  and  _376
REMARK  149  A    between atoms: _376  and  _377
REMARK  150  A    between atoms: _377  and  _378
REMARK  151  A    between atoms: _380  and  _382
REMARK  152  A    between atoms: _382  and  _383
REMARK  153  A    between atoms: _382  and  _385
REMARK  154  A    between atoms: _385  and  _386
REMARK  155  A    between atoms: _390  and  ZN_772
REMARK  156  A    between atoms: _391  and  _393
REMARK  157  A    between atoms: _393  and  _394
REMARK  158  A    between atoms: _393  and  _396
REMARK  159  A    between atoms: _396  and  _397
REMARK  160  A    between atoms: _400  and  _402
REMARK  161  A    between atoms: _402  and  _403
REMARK  162  A    between atoms: _402  and  _405
REMARK  163  A    between atoms: _405  and  _406
REMARK  164  A    between atoms: _411  and  _412
REMARK  165  A    between atoms: _414  and  _416
REMARK  166  A    between atoms: _416  and  _417
REMARK  167  A    between atoms: _416  and  _419
REMARK  168  A    between atoms: _419  and  _420
REMARK  169  A    between atoms: _426  and  _428
REMARK  170  A    between atoms: _428  and  _429
REMARK  171  A    between atoms: _428  and  _431
REMARK  172  A    between atoms: _431  and  _432
REMARK  173  A    between atoms: _437  and  _438
REMARK  174  A    between atoms: _440  and  _442
REMARK  175  A    between atoms: _442  and  _443
REMARK  176  A    between atoms: _442  and  _445
REMARK  177  A    between atoms: _445  and  _446
REMARK  178  A    between atoms: _446  and  _447
REMARK  179  A    between atoms: _447  and  _448
REMARK  180  A    between atoms: _457  and  _459
REMARK  181  A    between atoms: _459  and  _460
REMARK  182  A    between atoms: _459  and  _462
REMARK  183  A    between atoms: _462  and  _463
REMARK  184  A    between atoms: _463  and  _464
REMARK  185  A    between atoms: _467  and  _469
REMARK  186  A    between atoms: _469  and  _470
REMARK  187  A    between atoms: _472  and  _474
REMARK  188  A    between atoms: _474  and  _475
REMARK  189  A    between atoms: _474  and  _477
REMARK  190  A    between atoms: _477  and  _478
REMARK  191  A    between atoms: _484  and  _485
REMARK  192  A    between atoms: _490  and  _492
REMARK  193  A    between atoms: _492  and  _493
REMARK  194  A    between atoms: _495  and  _497
REMARK  195  A    between atoms: _497  and  _498
REMARK  196  A    between atoms: _497  and  _500
REMARK  197  A    between atoms: _500  and  _501
REMARK  198  A    between atoms: _507  and  _509
REMARK  199  A    between atoms: _509  and  _510
REMARK  200  A    between atoms: _509  and  _512
REMARK  201  A    between atoms: _512  and  _513
REMARK  202  A    between atoms: _518  and  _520
REMARK  203  A    between atoms: _520  and  _521
REMARK  204  A    between atoms: _520  and  _523
REMARK  205  A    between atoms: _523  and  _524
REMARK  206  A    between atoms: _524  and  _525
REMARK  207  A    between atoms: _525  and  _526
REMARK  208  A    between atoms: _526  and  ZN_772
REMARK  209  A    between atoms: _528  and  _530
REMARK  210  A    between atoms: _530  and  _531
REMARK  211  A    between atoms: _534  and  _536
REMARK  212  A    between atoms: _536  and  _537
REMARK  213  A    between atoms: _539  and  _541
REMARK  214  A    between atoms: _541  and  _542
REMARK  215  A    between atoms: _541  and  _544
REMARK  216  A    between atoms: _544  and  _545
REMARK  217  A    between atoms: _548  and  _550
REMARK  218  A    between atoms: _550  and  _551
REMARK  219  A    between atoms: _554  and  _556
REMARK  220  A    between atoms: _556  and  _557
REMARK  221  A    between atoms: _556  and  _559
REMARK  222  A    between atoms: _559  and  _560
REMARK  223  A    between atoms: _563  and  _565
REMARK  224  A    between atoms: _565  and  _566
REMARK  225  A    between atoms: _565  and  _568
REMARK  226  A    between atoms: _568  and  _569
REMARK  227  A    between atoms: _569  and  _570
REMARK  228  A    between atoms: _570  and  _571
REMARK  229  A    between atoms: _571  and  _572
REMARK  230  A    between atoms: _576  and  _578
REMARK  231  A    between atoms: _578  and  _579
REMARK  232  A    between atoms: _578  and  _581
REMARK  233  A    between atoms: _581  and  _582
REMARK  234  A    between atoms: _588  and  _590
REMARK  235  A    between atoms: _590  and  _591
REMARK  236  A    between atoms: _590  and  _593
REMARK  237  A    between atoms: _593  and  _594
REMARK  238  A    between atoms: _600  and  _602
REMARK  239  A    between atoms: _602  and  _603
REMARK  240  A    between atoms: _602  and  _605
REMARK  241  A    between atoms: _605  and  _606
REMARK  242  A    between atoms: _608  and  _610
REMARK  243  A    between atoms: _610  and  _611
REMARK  244  A    between atoms: _610  and  _613
REMARK  245  A    between atoms: _616  and  _618
REMARK  246  A    between atoms: _618  and  _619
REMARK  247  A    between atoms: _618  and  _621
REMARK  248  A    between atoms: _621  and  _622
REMARK  249  A    between atoms: _622  and  _623
REMARK  250  A    between atoms: _623  and  _624
REMARK  251  A    between atoms: _624  and  _625
REMARK  252  A    between atoms: _629  and  _631
REMARK  253  A    between atoms: _631  and  _632
REMARK  254  A    between atoms: _631  and  _634
REMARK  255  A    between atoms: _634  and  _635
REMARK  256  A    between atoms: _641  and  _643
REMARK  257  A    between atoms: _643  and  _644
REMARK  258  A    between atoms: _643  and  _646
REMARK  259  A    between atoms: _646  and  _647
REMARK  260  A    between atoms: _652  and  _654
REMARK  261  A    between atoms: _654  and  _655
REMARK  262  A    between atoms: _654  and  _657
REMARK  263  A    between atoms: _657  and  _658
REMARK  264  A    between atoms: _660  and  _662
REMARK  265  A    between atoms: _662  and  _663
REMARK  266  A    between atoms: _662  and  _665
REMARK  267  A    between atoms: _665  and  _666
REMARK  268  A    between atoms: _668  and  _670
REMARK  269  A    between atoms: _670  and  _671
REMARK  270  A    between atoms: _670  and  _673
REMARK  271  A    between atoms: _677  and  _678
REMARK  272  A    between atoms: _683  and  _685
REMARK  273  A    between atoms: _685  and  _686
REMARK  274  A    between atoms: _685  and  _688
REMARK  275  A    between atoms: _688  and  _689
REMARK  276  A    between atoms: _694  and  _695
REMARK  277  A    between atoms: _697  and  _699
REMARK  278  A    between atoms: _699  and  _700
REMARK  279  A    between atoms: _699  and  _702
REMARK  280  A    between atoms: _702  and  _703
REMARK  281  A    between atoms: _703  and  _704
REMARK  282  A    between atoms: _704  and  _705
REMARK  283  A    between atoms: _714  and  _716
REMARK  284  A    between atoms: _716  and  _717
REMARK  285  A    between atoms: _716  and  _719
REMARK  286  A    between atoms: _719  and  _720
REMARK  287  A    between atoms: _725  and  _726
REMARK  288  A    between atoms: _728  and  _730
REMARK  289  A    between atoms: _730  and  _731
REMARK  290  A    between atoms: _730  and  _733
REMARK  291  A    between atoms: _733  and  _734
REMARK  292  A    between atoms: _740  and  _742
REMARK  293  A    between atoms: _742  and  _743
REMARK  294  A    between atoms: _742  and  _745
REMARK  295  A    between atoms: _745  and  _746
REMARK  296  A    between atoms: _748  and  _750
REMARK  297  A    between atoms: _750  and  _751
REMARK  298  A    between atoms: _750  and  _753
REMARK  299  A    between atoms: _753  and  _754
REMARK  300  A    between atoms: _760  and  _762
REMARK  301  A    between atoms: _762  and  _763
REMARK  302  A    between atoms: _762  and  _765
REMARK  303  A    between atoms: _765  and  _766
REMARK  304  A    between atoms: _766  and  _767
REMARK                            x       y       z     vdW  Elec       q    Type
REMARK                         _______ _______ _______ _____ _____    ______ ____
ROOT
ATOM      1  O   HOH     1      11.364  -9.183 -26.204  0.00  0.00    +0.000 OA
ENDROOT
TORSDOF 0
REMARK  Name = ../refined-set-2016/2xy9/2xy9_pocket.pdb
REMARK  304 active torsions:
REMARK  status: ('A' for Active; 'I' for Inactive)
REMARK    1  A    between atoms: _1  and  _3
REMARK    2  A    between atoms: _3  and  _4
REMARK    3  A    between atoms: _3  and  _6
REMARK    4  A    between atoms: _6  and  _7
REMARK    5  A    between atoms: _12  and  _14
REMARK    6  A    between atoms: _14  and  _15
REMARK    7  A    between atoms: _14  and  _17
REMARK    8  A    between atoms: _17  and  _18
REMARK    9  A    between atoms: _23  and  _25
REMARK   10  A    between atoms: _25  and  _26
REMARK   11  A    between atoms: _25  and  _28
REMARK   12  A    between atoms: _28  and  _29
REMARK   13  A    between atoms: _29  and  _30
REMARK   14  A    between atoms: _33  and  _35
REMARK   15  A    between atoms: _35  and  _36
REMARK   16  A    between atoms: _35  and  _38
REMARK   17  A    between atoms: _38  and  _39
REMARK   18  A    between atoms: _44  and  _45
REMARK   19  A    between atoms: _47  and  _49
REMARK   20  A    between atoms: _49  and  _50
REMARK   21  A    between atoms: _49  and  _52
REMARK   22  A    between atoms: _52  and  _53
REMARK   23  A    between atoms: _56  and  _58
REMARK   24  A    between atoms: _58  and  _59
REMARK   25  A    between atoms: _61  and  _63
REMARK   26  A    between atoms: _63  and  _64
REMARK   27  A    between atoms: _63  and  _66
REMARK   28  A    between atoms: _66  and  _67
REMARK   29  A    between atoms: _72  and  _74
REMARK   30  A    between atoms: _74  and  _75
REMARK   31  A    between atoms: _74  and  _77
REMARK   32  A    between atoms: _77  and  _78
REMARK   33  A    between atoms: _88  and  _90
REMARK   34  A    between atoms: _90  and  _91
REMARK   35  A    between atoms: _90  and  _93
REMARK   36  A    between atoms: _93  and  _94
REMARK   37  A    between atoms: _94  and  _95
REMARK   38  A    between atoms: _100  and  _102
REMARK   39  A    between atoms: _102  and  _103
REMARK   40  A    between atoms: _102  and  _105
REMARK   41  A    between atoms: _105  and  _106
REMARK   42  A    between atoms: _109  and  _111
REMARK   43  A    between atoms: _111  and  _112
REMARK   44  A    between atoms: _111  and  _114
REMARK   45  A    between atoms: _114  and  _115
REMARK   46  A    between atoms: _125  and  _127
REMARK   47  A    between atoms: _127  and  _128
REMARK   48  A    between atoms: _127  and  _130
REMARK   49  A    between atoms: _130  and  _131
REMARK   50  A    between atoms: _133  and  _135
REMARK   51  A    between atoms: _135  and  _136
REMARK   52  A    between atoms: _135  and  _138
REMARK   53  A    between atoms: _138  and  _139
REMARK   54  A    between atoms: _144  and  _146
REMARK   55  A    between atoms: _146  and  _147
REMARK   56  A    between atoms: _146  and  _149
REMARK   57  A    between atoms: _152  and  _154
REMARK   58  A    between atoms: _154  and  _155
REMARK   59  A    between atoms: _154  and  _157
REMARK   60  A    between atoms: _159  and  _161
REMARK   61  A    between atoms: _161  and  _162
REMARK   62  A    between atoms: _161  and  _164
REMARK   63  A    between atoms: _164  and  _165
REMARK   64  A    between atoms: _170  and  _172
REMARK   65  A    between atoms: _172  and  _173
REMARK   66  A    between atoms: _176  and  _178
REMARK   67  A    between atoms: _178  and  _179
REMARK   68  A    between atoms: _178  and  _181
REMARK   69  A    between atoms: _181  and  _182
REMARK   70  A    between atoms: _184  and  _186
REMARK   71  A    between atoms: _186  and  _187
REMARK   72  A    between atoms: _190  and  _192
REMARK   73  A    between atoms: _192  and  _193
REMARK   74  A    between atoms: _192  and  _195
REMARK   75  A    between atoms: _195  and  _196
REMARK   76  A    between atoms: _206  and  _208
REMARK   77  A    between atoms: _208  and  _209
REMARK   78  A    between atoms: _208  and  _211
REMARK   79  A    between atoms: _211  and  _212
REMARK   80  A    between atoms: _215  and  _217
REMARK   81  A    between atoms: _217  and  _218
REMARK   82  A    between atoms: _217  and  _220
REMARK   83  A    between atoms: _220  and  _221
REMARK   84  A    between atoms: _226  and  _227
REMARK   85  A    between atoms: _229  and  _231
REMARK   86  A    between atoms: _231  and  _232
REMARK   87  A    between atoms: _231  and  _234
REMARK   88  A    between atoms: _234  and  _235
REMARK   89  A    between atoms: _235  and  _236
REMARK   90  A    between atoms: _236  and  _237
REMARK   91  A    between atoms: _246  and  _248
REMARK   92  A    between atoms: _248  and  _249
REMARK   93  A    between atoms: _248  and  _251
REMARK   94  A    between atoms: _251  and  _252
REMARK   95  A    between atoms: _255  and  _257
REMARK   96  A    between atoms: _257  and  _258
REMARK   97  A    between atoms: _257  and  _260
REMARK   98  A    between atoms: _260  and  _261
REMARK   99  A    between atoms: _261  and  _262
REMARK  100  A    between atoms: _262  and  _263
REMARK  101  A    between atoms: _263  and  _264
REMARK  102  A    between atoms: _268  and  _270
REMARK  103  A    between atoms: _270  and  _271
REMARK  104  A    between atoms: _270  and  _273
REMARK  105  A    between atoms: _273  and  _274
REMARK  106  A    between atoms: _274  and  _275
REMARK  107  A    between atoms: _280  and  _282
REMARK  108  A    between atoms: _282  and  _283
REMARK  109  A    between atoms: _282  and  _285
REMARK  110  A    between atoms: _285  and  _286
REMARK  111  A    between atoms: _289  and  _291
REMARK  112  A    between atoms: _291  and  _292
REMARK  113  A    between atoms: _291  and  _294
REMARK  114  A    between atoms: _294  and  _295
REMARK  115  A    between atoms: _295  and  _296
REMARK  116  A    between atoms: _299  and  _301
REMARK  117  A    between atoms: _301  and  _302
REMARK  118  A    between atoms: _301  and  _304
REMARK  119  A    between atoms: _304  and  _305
REMARK  120  A    between atoms: _308  and  _310
REMARK  121  A    between atoms: _310  and  _311
REMARK  122  A    between atoms: _310  and  _313
REMARK  123  A    between atoms: _313  and  _314
REMARK  124  A    between atoms: _317  and  _319
REMARK  125  A    between atoms: _319  and  _320
REMARK  126  A    between atoms: _319  and  _322
REMARK  127  A    between atoms: _325  and  _327
REMARK  128  A    between atoms: _327  and  _328
REMARK  129  A    between atoms: _327  and  _330
REMARK  130  A    between atoms: _333  and  _335
REMARK  131  A    between atoms: _335  and  _336
REMARK  132  A    between atoms: _339  and  _341
REMARK  133  A    between atoms: _341  and  _342
REMARK  134  A    between atoms: _341  and  _344
REMARK  135  A    between atoms: _344  and  _345
REMARK  136  A    between atoms: _350  and  _352
REMARK  137  A    between atoms: _352  and  _353
REMARK  138  A    between atoms: _352  and  _355
REMARK  139  A    between atoms: _355  and  _356
REMARK  140  A    between atoms: _360  and  ZN_772
REMARK  141  A    between atoms: _361  and  _363
REMARK  142  A    between atoms: _363  and  _364
REMARK  143  A    between atoms: _363  and  _366
REMARK  144  A    between atoms: _366  and  _367
REMARK  145  A    between atoms: _367  and  _368
REMARK  146  A    between atoms: _371  and  _373
REMARK  147  A    between atoms: _373  and  _374
REMARK  148  A    between atoms: _373  and  _376
REMARK  149  A    between atoms: _376  and  _377
REMARK  150  A    between atoms: _377  and  _378
REMARK  151  A    between atoms: _380  and  _382
REMARK  152  A    between atoms: _382  and  _383
REMARK  153  A    between atoms: _382  and  _385
REMARK  154  A    between atoms: _385  and  _386
REMARK  155  A    between atoms: _390  and  ZN_772
REMARK  156  A    between atoms: _391  and  _393
REMARK  157  A    between atoms: _393  and  _394
REMARK  158  A    between atoms: _393  and  _396
REMARK  159  A    between atoms: _396  and  _397
REMARK  160  A    between atoms: _400  and  _402
REMARK  161  A    between atoms: _402  and  _403
REMARK  162  A    between atoms: _402  and  _405
REMARK  163  A    between atoms: _405  and  _406
REMARK  164  A    between atoms: _411  and  _412
REMARK  165  A    between atoms: _414  and  _416
REMARK  166  A    between atoms: _416  and  _417
REMARK  167  A    between atoms: _416  and  _419
REMARK  168  A    between atoms: _419  and  _420
REMARK  169  A    between atoms: _426  and  _428
REMARK  170  A    between atoms: _428  and  _429
REMARK  171  A    between atoms: _428  and  _431
REMARK  172  A    between atoms: _431  and  _432
REMARK  173  A    between atoms: _437  and  _438
REMARK  174  A    between atoms: _440  and  _442
REMARK  175  A    between atoms: _442  and  _443
REMARK  176  A    between atoms: _442  and  _445
REMARK  177  A    between atoms: _445  and  _446
REMARK  178  A    between atoms: _446  and  _447
REMARK  179  A    between atoms: _447  and  _448
REMARK  180  A    between atoms: _457  and  _459
REMARK  181  A    between atoms: _459  and  _460
REMARK  182  A    between atoms: _459  and  _462
REMARK  183  A    between atoms: _462  and  _463
REMARK  184  A    between atoms: _463  and  _464
REMARK  185  A    between atoms: _467  and  _469
REMARK  186  A    between atoms: _469  and  _470
REMARK  187  A    between atoms: _472  and  _474
REMARK  188  A    between atoms: _474  and  _475
REMARK  189  A    between atoms: _474  and  _477
REMARK  190  A    between atoms: _477  and  _478
REMARK  191  A    between atoms: _484  and  _485
REMARK  192  A    between atoms: _490  and  _492
REMARK  193  A    between atoms: _492  and  _493
REMARK  194  A    between atoms: _495  and  _497
REMARK  195  A    between atoms: _497  and  _498
REMARK  196  A    between atoms: _497  and  _500
REMARK  197  A    between atoms: _500  and  _501
REMARK  198  A    between atoms: _507  and  _509
REMARK  199  A    between atoms: _509  and  _510
REMARK  200  A    between atoms: _509  and  _512
REMARK  201  A    between atoms: _512  and  _513
REMARK  202  A    between atoms: _518  and  _520
REMARK  203  A    between atoms: _520  and  _521
REMARK  204  A    between atoms: _520  and  _523
REMARK  205  A    between atoms: _523  and  _524
REMARK  206  A    between atoms: _524  and  _525
REMARK  207  A    between atoms: _525  and  _526
REMARK  208  A    between atoms: _526  and  ZN_772
REMARK  209  A    between atoms: _528  and  _530
REMARK  210  A    between atoms: _530  and  _531
REMARK  211  A    between atoms: _534  and  _536
REMARK  212  A    between atoms: _536  and  _537
REMARK  213  A    between atoms: _539  and  _541
REMARK  214  A    between atoms: _541  and  _542
REMARK  215  A    between atoms: _541  and  _544
REMARK  216  A    between atoms: _544  and  _545
REMARK  217  A    between atoms: _548  and  _550
REMARK  218  A    between atoms: _550  and  _551
REMARK  219  A    between atoms: _554  and  _556
REMARK  220  A    between atoms: _556  and  _557
REMARK  221  A    between atoms: _556  and  _559
REMARK  222  A    between atoms: _559  and  _560
REMARK  223  A    between atoms: _563  and  _565
REMARK  224  A    between atoms: _565  and  _566
REMARK  225  A    between atoms: _565  and  _568
REMARK  226  A    between atoms: _568  and  _569
REMARK  227  A    between atoms: _569  and  _570
REMARK  228  A    between atoms: _570  and  _571
REMARK  229  A    between atoms: _571  and  _572
REMARK  230  A    between atoms: _576  and  _578
REMARK  231  A    between atoms: _578  and  _579
REMARK  232  A    between atoms: _578  and  _581
REMARK  233  A    between atoms: _581  and  _582
REMARK  234  A    between atoms: _588  and  _590
REMARK  235  A    between atoms: _590  and  _591
REMARK  236  A    between atoms: _590  and  _593
REMARK  237  A    between atoms: _593  and  _594
REMARK  238  A    between atoms: _600  and  _602
REMARK  239  A    between atoms: _602  and  _603
REMARK  240  A    between atoms: _602  and  _605
REMARK  241  A    between atoms: _605  and  _606
REMARK  242  A    between atoms: _608  and  _610
REMARK  243  A    between atoms: _610  and  _611
REMARK  244  A    between atoms: _610  and  _613
REMARK  245  A    between atoms: _616  and  _618
REMARK  246  A    between atoms: _618  and  _619
REMARK  247  A    between atoms: _618  and  _621
REMARK  248  A    between atoms: _621  and  _622
REMARK  249  A    between atoms: _622  and  _623
REMARK  250  A    between atoms: _623  and  _624
REMARK  251  A    between atoms: _624  and  _625
REMARK  252  A    between atoms: _629  and  _631
REMARK  253  A    between atoms: _631  and  _632
REMARK  254  A    between atoms: _631  and  _634
REMARK  255  A    between atoms: _634  and  _635
REMARK  256  A    between atoms: _641  and  _643
REMARK  257  A    between atoms: _643  and  _644
REMARK  258  A    between atoms: _643  and  _646
REMARK  259  A    between atoms: _646  and  _647
REMARK  260  A    between atoms: _652  and  _654
REMARK  261  A    between atoms: _654  and  _655
REMARK  262  A    between atoms: _654  and  _657
REMARK  263  A    between atoms: _657  and  _658
REMARK  264  A    between atoms: _660  and  _662
REMARK  265  A    between atoms: _662  and  _663
REMARK  266  A    between atoms: _662  and  _665
REMARK  267  A    between atoms: _665  and  _666
REMARK  268  A    between atoms: _668  and  _670
REMARK  269  A    between atoms: _670  and  _671
REMARK  270  A    between atoms: _670  and  _673
REMARK  271  A    between atoms: _677  and  _678
REMARK  272  A    between atoms: _683  and  _685
REMARK  273  A    between atoms: _685  and  _686
REMARK  274  A    between atoms: _685  and  _688
REMARK  275  A    between atoms: _688  and  _689
REMARK  276  A    between atoms: _694  and  _695
REMARK  277  A    between atoms: _697  and  _699
REMARK  278  A    between atoms: _699  and  _700
REMARK  279  A    between atoms: _699  and  _702
REMARK  280  A    between atoms: _702  and  _703
REMARK  281  A    between atoms: _703  and  _704
REMARK  282  A    between atoms: _704  and  _705
REMARK  283  A    between atoms: _714  and  _716
REMARK  284  A    between atoms: _716  and  _717
REMARK  285  A    between atoms: _716  and  _719
REMARK  286  A    between atoms: _719  and  _720
REMARK  287  A    between atoms: _725  and  _726
REMARK  288  A    between atoms: _728  and  _730
REMARK  289  A    between atoms: _730  and  _731
REMARK  290  A    between atoms: _730  and  _733
REMARK  291  A    between atoms: _733  and  _734
REMARK  292  A    between atoms: _740  and  _742
REMARK  293  A    between atoms: _742  and  _743
REMARK  294  A    between atoms: _742  and  _745
REMARK  295  A    between atoms: _745  and  _746
REMARK  296  A    between atoms: _748  and  _750
REMARK  297  A    between atoms: _750  and  _751
REMARK  298  A    between atoms: _750  and  _753
REMARK  299  A    between atoms: _753  and  _754
REMARK  300  A    between atoms: _760  and  _762
REMARK  301  A    between atoms: _762  and  _763
REMARK  302  A    between atoms: _762  and  _765
REMARK  303  A    between atoms: _765  and  _766
REMARK  304  A    between atoms: _766  and  _767
REMARK                            x       y       z     vdW  Elec       q    Type
REMARK                         _______ _______ _______ _____ _____    ______ ____
ROOT
ATOM      1  O   HOH     1      18.349  -5.357 -32.450  0.00  0.00    +0.000 OA
ENDROOT
TORSDOF 0
REMARK  Name = ../refined-set-2016/2xy9/2xy9_pocket.pdb
REMARK  304 active torsions:
REMARK  status: ('A' for Active; 'I' for Inactive)
REMARK    1  A    between atoms: _1  and  _3
REMARK    2  A    between atoms: _3  and  _4
REMARK    3  A    between atoms: _3  and  _6
REMARK    4  A    between atoms: _6  and  _7
REMARK    5  A    between atoms: _12  and  _14
REMARK    6  A    between atoms: _14  and  _15
REMARK    7  A    between atoms: _14  and  _17
REMARK    8  A    between atoms: _17  and  _18
REMARK    9  A    between atoms: _23  and  _25
REMARK   10  A    between atoms: _25  and  _26
REMARK   11  A    between atoms: _25  and  _28
REMARK   12  A    between atoms: _28  and  _29
REMARK   13  A    between atoms: _29  and  _30
REMARK   14  A    between atoms: _33  and  _35
REMARK   15  A    between atoms: _35  and  _36
REMARK   16  A    between atoms: _35  and  _38
REMARK   17  A    between atoms: _38  and  _39
REMARK   18  A    between atoms: _44  and  _45
REMARK   19  A    between atoms: _47  and  _49
REMARK   20  A    between atoms: _49  and  _50
REMARK   21  A    between atoms: _49  and  _52
REMARK   22  A    between atoms: _52  and  _53
REMARK   23  A    between atoms: _56  and  _58
REMARK   24  A    between atoms: _58  and  _59
REMARK   25  A    between atoms: _61  and  _63
REMARK   26  A    between atoms: _63  and  _64
REMARK   27  A    between atoms: _63  and  _66
REMARK   28  A    between atoms: _66  and  _67
REMARK   29  A    between atoms: _72  and  _74
REMARK   30  A    between atoms: _74  and  _75
REMARK   31  A    between atoms: _74  and  _77
REMARK   32  A    between atoms: _77  and  _78
REMARK   33  A    between atoms: _88  and  _90
REMARK   34  A    between atoms: _90  and  _91
REMARK   35  A    between atoms: _90  and  _93
REMARK   36  A    between atoms: _93  and  _94
REMARK   37  A    between atoms: _94  and  _95
REMARK   38  A    between atoms: _100  and  _102
REMARK   39  A    between atoms: _102  and  _103
REMARK   40  A    between atoms: _102  and  _105
REMARK   41  A    between atoms: _105  and  _106
REMARK   42  A    between atoms: _109  and  _111
REMARK   43  A    between atoms: _111  and  _112
REMARK   44  A    between atoms: _111  and  _114
REMARK   45  A    between atoms: _114  and  _115
REMARK   46  A    between atoms: _125  and  _127
REMARK   47  A    between atoms: _127  and  _128
REMARK   48  A    between atoms: _127  and  _130
REMARK   49  A    between atoms: _130  and  _131
REMARK   50  A    between atoms: _133  and  _135
REMARK   51  A    between atoms: _135  and  _136
REMARK   52  A    between atoms: _135  and  _138
REMARK   53  A    between atoms: _138  and  _139
REMARK   54  A    between atoms: _144  and  _146
REMARK   55  A    between atoms: _146  and  _147
REMARK   56  A    between atoms: _146  and  _149
REMARK   57  A    between atoms: _152  and  _154
REMARK   58  A    between atoms: _154  and  _155
REMARK   59  A    between atoms: _154  and  _157
REMARK   60  A    between atoms: _159  and  _161
REMARK   61  A    between atoms: _161  and  _162
REMARK   62  A    between atoms: _161  and  _164
REMARK   63  A    between atoms: _164  and  _165
REMARK   64  A    between atoms: _170  and  _172
REMARK   65  A    between atoms: _172  and  _173
REMARK   66  A    between atoms: _176  and  _178
REMARK   67  A    between atoms: _178  and  _179
REMARK   68  A    between atoms: _178  and  _181
REMARK   69  A    between atoms: _181  and  _182
REMARK   70  A    between atoms: _184  and  _186
REMARK   71  A    between atoms: _186  and  _187
REMARK   72  A    between atoms: _190  and  _192
REMARK   73  A    between atoms: _192  and  _193
REMARK   74  A    between atoms: _192  and  _195
REMARK   75  A    between atoms: _195  and  _196
REMARK   76  A    between atoms: _206  and  _208
REMARK   77  A    between atoms: _208  and  _209
REMARK   78  A    between atoms: _208  and  _211
REMARK   79  A    between atoms: _211  and  _212
REMARK   80  A    between atoms: _215  and  _217
REMARK   81  A    between atoms: _217  and  _218
REMARK   82  A    between atoms: _217  and  _220
REMARK   83  A    between atoms: _220  and  _221
REMARK   84  A    between atoms: _226  and  _227
REMARK   85  A    between atoms: _229  and  _231
REMARK   86  A    between atoms: _231  and  _232
REMARK   87  A    between atoms: _231  and  _234
REMARK   88  A    between atoms: _234  and  _235
REMARK   89  A    between atoms: _235  and  _236
REMARK   90  A    between atoms: _236  and  _237
REMARK   91  A    between atoms: _246  and  _248
REMARK   92  A    between atoms: _248  and  _249
REMARK   93  A    between atoms: _248  and  _251
REMARK   94  A    between atoms: _251  and  _252
REMARK   95  A    between atoms: _255  and  _257
REMARK   96  A    between atoms: _257  and  _258
REMARK   97  A    between atoms: _257  and  _260
REMARK   98  A    between atoms: _260  and  _261
REMARK   99  A    between atoms: _261  and  _262
REMARK  100  A    between atoms: _262  and  _263
REMARK  101  A    between atoms: _263  and  _264
REMARK  102  A    between atoms: _268  and  _270
REMARK  103  A    between atoms: _270  and  _271
REMARK  104  A    between atoms: _270  and  _273
REMARK  105  A    between atoms: _273  and  _274
REMARK  106  A    between atoms: _274  and  _275
REMARK  107  A    between atoms: _280  and  _282
REMARK  108  A    between atoms: _282  and  _283
REMARK  109  A    between atoms: _282  and  _285
REMARK  110  A    between atoms: _285  and  _286
REMARK  111  A    between atoms: _289  and  _291
REMARK  112  A    between atoms: _291  and  _292
REMARK  113  A    between atoms: _291  and  _294
REMARK  114  A    between atoms: _294  and  _295
REMARK  115  A    between atoms: _295  and  _296
REMARK  116  A    between atoms: _299  and  _301
REMARK  117  A    between atoms: _301  and  _302
REMARK  118  A    between atoms: _301  and  _304
REMARK  119  A    between atoms: _304  and  _305
REMARK  120  A    between atoms: _308  and  _310
REMARK  121  A    between atoms: _310  and  _311
REMARK  122  A    between atoms: _310  and  _313
REMARK  123  A    between atoms: _313  and  _314
REMARK  124  A    between atoms: _317  and  _319
REMARK  125  A    between atoms: _319  and  _320
REMARK  126  A    between atoms: _319  and  _322
REMARK  127  A    between atoms: _325  and  _327
REMARK  128  A    between atoms: _327  and  _328
REMARK  129  A    between atoms: _327  and  _330
REMARK  130  A    between atoms: _333  and  _335
REMARK  131  A    between atoms: _335  and  _336
REMARK  132  A    between atoms: _339  and  _341
REMARK  133  A    between atoms: _341  and  _342
REMARK  134  A    between atoms: _341  and  _344
REMARK  135  A    between atoms: _344  and  _345
REMARK  136  A    between atoms: _350  and  _352
REMARK  137  A    between atoms: _352  and  _353
REMARK  138  A    between atoms: _352  and  _355
REMARK  139  A    between atoms: _355  and  _356
REMARK  140  A    between atoms: _360  and  ZN_772
REMARK  141  A    between atoms: _361  and  _363
REMARK  142  A    between atoms: _363  and  _364
REMARK  143  A    between atoms: _363  and  _366
REMARK  144  A    between atoms: _366  and  _367
REMARK  145  A    between atoms: _367  and  _368
REMARK  146  A    between atoms: _371  and  _373
REMARK  147  A    between atoms: _373  and  _374
REMARK  148  A    between atoms: _373  and  _376
REMARK  149  A    between atoms: _376  and  _377
REMARK  150  A    between atoms: _377  and  _378
REMARK  151  A    between atoms: _380  and  _382
REMARK  152  A    between atoms: _382  and  _383
REMARK  153  A    between atoms: _382  and  _385
REMARK  154  A    between atoms: _385  and  _386
REMARK  155  A    between atoms: _390  and  ZN_772
REMARK  156  A    between atoms: _391  and  _393
REMARK  157  A    between atoms: _393  and  _394
REMARK  158  A    between atoms: _393  and  _396
REMARK  159  A    between atoms: _396  and  _397
REMARK  160  A    between atoms: _400  and  _402
REMARK  161  A    between atoms: _402  and  _403
REMARK  162  A    between atoms: _402  and  _405
REMARK  163  A    between atoms: _405  and  _406
REMARK  164  A    between atoms: _411  and  _412
REMARK  165  A    between atoms: _414  and  _416
REMARK  166  A    between atoms: _416  and  _417
REMARK  167  A    between atoms: _416  and  _419
REMARK  168  A    between atoms: _419  and  _420
REMARK  169  A    between atoms: _426  and  _428
REMARK  170  A    between atoms: _428  and  _429
REMARK  171  A    between atoms: _428  and  _431
REMARK  172  A    between atoms: _431  and  _432
REMARK  173  A    between atoms: _437  and  _438
REMARK  174  A    between atoms: _440  and  _442
REMARK  175  A    between atoms: _442  and  _443
REMARK  176  A    between atoms: _442  and  _445
REMARK  177  A    between atoms: _445  and  _446
REMARK  178  A    between atoms: _446  and  _447
REMARK  179  A    between atoms: _447  and  _448
REMARK  180  A    between atoms: _457  and  _459
REMARK  181  A    between atoms: _459  and  _460
REMARK  182  A    between atoms: _459  and  _462
REMARK  183  A    between atoms: _462  and  _463
REMARK  184  A    between atoms: _463  and  _464
REMARK  185  A    between atoms: _467  and  _469
REMARK  186  A    between atoms: _469  and  _470
REMARK  187  A    between atoms: _472  and  _474
REMARK  188  A    between atoms: _474  and  _475
REMARK  189  A    between atoms: _474  and  _477
REMARK  190  A    between atoms: _477  and  _478
REMARK  191  A    between atoms: _484  and  _485
REMARK  192  A    between atoms: _490  and  _492
REMARK  193  A    between atoms: _492  and  _493
REMARK  194  A    between atoms: _495  and  _497
REMARK  195  A    between atoms: _497  and  _498
REMARK  196  A    between atoms: _497  and  _500
REMARK  197  A    between atoms: _500  and  _501
REMARK  198  A    between atoms: _507  and  _509
REMARK  199  A    between atoms: _509  and  _510
REMARK  200  A    between atoms: _509  and  _512
REMARK  201  A    between atoms: _512  and  _513
REMARK  202  A    between atoms: _518  and  _520
REMARK  203  A    between atoms: _520  and  _521
REMARK  204  A    between atoms: _520  and  _523
REMARK  205  A    between atoms: _523  and  _524
REMARK  206  A    between atoms: _524  and  _525
REMARK  207  A    between atoms: _525  and  _526
REMARK  208  A    between atoms: _526  and  ZN_772
REMARK  209  A    between atoms: _528  and  _530
REMARK  210  A    between atoms: _530  and  _531
REMARK  211  A    between atoms: _534  and  _536
REMARK  212  A    between atoms: _536  and  _537
REMARK  213  A    between atoms: _539  and  _541
REMARK  214  A    between atoms: _541  and  _542
REMARK  215  A    between atoms: _541  and  _544
REMARK  216  A    between atoms: _544  and  _545
REMARK  217  A    between atoms: _548  and  _550
REMARK  218  A    between atoms: _550  and  _551
REMARK  219  A    between atoms: _554  and  _556
REMARK  220  A    between atoms: _556  and  _557
REMARK  221  A    between atoms: _556  and  _559
REMARK  222  A    between atoms: _559  and  _560
REMARK  223  A    between atoms: _563  and  _565
REMARK  224  A    between atoms: _565  and  _566
REMARK  225  A    between atoms: _565  and  _568
REMARK  226  A    between atoms: _568  and  _569
REMARK  227  A    between atoms: _569  and  _570
REMARK  228  A    between atoms: _570  and  _571
REMARK  229  A    between atoms: _571  and  _572
REMARK  230  A    between atoms: _576  and  _578
REMARK  231  A    between atoms: _578  and  _579
REMARK  232  A    between atoms: _578  and  _581
REMARK  233  A    between atoms: _581  and  _582
REMARK  234  A    between atoms: _588  and  _590
REMARK  235  A    between atoms: _590  and  _591
REMARK  236  A    between atoms: _590  and  _593
REMARK  237  A    between atoms: _593  and  _594
REMARK  238  A    between atoms: _600  and  _602
REMARK  239  A    between atoms: _602  and  _603
REMARK  240  A    between atoms: _602  and  _605
REMARK  241  A    between atoms: _605  and  _606
REMARK  242  A    between atoms: _608  and  _610
REMARK  243  A    between atoms: _610  and  _611
REMARK  244  A    between atoms: _610  and  _613
REMARK  245  A    between atoms: _616  and  _618
REMARK  246  A    between atoms: _618  and  _619
REMARK  247  A    between atoms: _618  and  _621
REMARK  248  A    between atoms: _621  and  _622
REMARK  249  A    between atoms: _622  and  _623
REMARK  250  A    between atoms: _623  and  _624
REMARK  251  A    between atoms: _624  and  _625
REMARK  252  A    between atoms: _629  and  _631
REMARK  253  A    between atoms: _631  and  _632
REMARK  254  A    between atoms: _631  and  _634
REMARK  255  A    between atoms: _634  and  _635
REMARK  256  A    between atoms: _641  and  _643
REMARK  257  A    between atoms: _643  and  _644
REMARK  258  A    between atoms: _643  and  _646
REMARK  259  A    between atoms: _646  and  _647
REMARK  260  A    between atoms: _652  and  _654
REMARK  261  A    between atoms: _654  and  _655
REMARK  262  A    between atoms: _654  and  _657
REMARK  263  A    between atoms: _657  and  _658
REMARK  264  A    between atoms: _660  and  _662
REMARK  265  A    between atoms: _662  and  _663
REMARK  266  A    between atoms: _662  and  _665
REMARK  267  A    between atoms: _665  and  _666
REMARK  268  A    between atoms: _668  and  _670
REMARK  269  A    between atoms: _670  and  _671
REMARK  270  A    between atoms: _670  and  _673
REMARK  271  A    between atoms: _677  and  _678
REMARK  272  A    between atoms: _683  and  _685
REMARK  273  A    between atoms: _685  and  _686
REMARK  274  A    between atoms: _685  and  _688
REMARK  275  A    between atoms: _688  and  _689
REMARK  276  A    between atoms: _694  and  _695
REMARK  277  A    between atoms: _697  and  _699
REMARK  278  A    between atoms: _699  and  _700
REMARK  279  A    between atoms: _699  and  _702
REMARK  280  A    between atoms: _702  and  _703
REMARK  281  A    between atoms: _703  and  _704
REMARK  282  A    between atoms: _704  and  _705
REMARK  283  A    between atoms: _714  and  _716
REMARK  284  A    between atoms: _716  and  _717
REMARK  285  A    between atoms: _716  and  _719
REMARK  286  A    between atoms: _719  and  _720
REMARK  287  A    between atoms: _725  and  _726
REMARK  288  A    between atoms: _728  and  _730
REMARK  289  A    between atoms: _730  and  _731
REMARK  290  A    between atoms: _730  and  _733
REMARK  291  A    between atoms: _733  and  _734
REMARK  292  A    between atoms: _740  and  _742
REMARK  293  A    between atoms: _742  and  _743
REMARK  294  A    between atoms: _742  and  _745
REMARK  295  A    between atoms: _745  and  _746
REMARK  296  A    between atoms: _748  and  _750
REMARK  297  A    between atoms: _750  and  _751
REMARK  298  A    between atoms: _750  and  _753
REMARK  299  A    between atoms: _753  and  _754
REMARK  300  A    between atoms: _760  and  _762
REMARK  301  A    between atoms: _762  and  _763
REMARK  302  A    between atoms: _762  and  _765
REMARK  303  A    between atoms: _765  and  _766
REMARK  304  A    between atoms: _766  and  _767
REMARK                            x       y       z     vdW  Elec       q    Type
REMARK                         _______ _______ _______ _____ _____    ______ ____
ROOT
ATOM      1  O   HOH     1      12.815   2.617 -17.043  0.00  0.00    +0.000 OA
ENDROOT
TORSDOF 0
REMARK  Name = ../refined-set-2016/2xy9/2xy9_pocket.pdb
REMARK  304 active torsions:
REMARK  status: ('A' for Active; 'I' for Inactive)
REMARK    1  A    between atoms: _1  and  _3
REMARK    2  A    between atoms: _3  and  _4
REMARK    3  A    between atoms: _3  and  _6
REMARK    4  A    between atoms: _6  and  _7
REMARK    5  A    between atoms: _12  and  _14
REMARK    6  A    between atoms: _14  and  _15
REMARK    7  A    between atoms: _14  and  _17
REMARK    8  A    between atoms: _17  and  _18
REMARK    9  A    between atoms: _23  and  _25
REMARK   10  A    between atoms: _25  and  _26
REMARK   11  A    between atoms: _25  and  _28
REMARK   12  A    between atoms: _28  and  _29
REMARK   13  A    between atoms: _29  and  _30
REMARK   14  A    between atoms: _33  and  _35
REMARK   15  A    between atoms: _35  and  _36
REMARK   16  A    between atoms: _35  and  _38
REMARK   17  A    between atoms: _38  and  _39
REMARK   18  A    between atoms: _44  and  _45
REMARK   19  A    between atoms: _47  and  _49
REMARK   20  A    between atoms: _49  and  _50
REMARK   21  A    between atoms: _49  and  _52
REMARK   22  A    between atoms: _52  and  _53
REMARK   23  A    between atoms: _56  and  _58
REMARK   24  A    between atoms: _58  and  _59
REMARK   25  A    between atoms: _61  and  _63
REMARK   26  A    between atoms: _63  and  _64
REMARK   27  A    between atoms: _63  and  _66
REMARK   28  A    between atoms: _66  and  _67
REMARK   29  A    between atoms: _72  and  _74
REMARK   30  A    between atoms: _74  and  _75
REMARK   31  A    between atoms: _74  and  _77
REMARK   32  A    between atoms: _77  and  _78
REMARK   33  A    between atoms: _88  and  _90
REMARK   34  A    between atoms: _90  and  _91
REMARK   35  A    between atoms: _90  and  _93
REMARK   36  A    between atoms: _93  and  _94
REMARK   37  A    between atoms: _94  and  _95
REMARK   38  A    between atoms: _100  and  _102
REMARK   39  A    between atoms: _102  and  _103
REMARK   40  A    between atoms: _102  and  _105
REMARK   41  A    between atoms: _105  and  _106
REMARK   42  A    between atoms: _109  and  _111
REMARK   43  A    between atoms: _111  and  _112
REMARK   44  A    between atoms: _111  and  _114
REMARK   45  A    between atoms: _114  and  _115
REMARK   46  A    between atoms: _125  and  _127
REMARK   47  A    between atoms: _127  and  _128
REMARK   48  A    between atoms: _127  and  _130
REMARK   49  A    between atoms: _130  and  _131
REMARK   50  A    between atoms: _133  and  _135
REMARK   51  A    between atoms: _135  and  _136
REMARK   52  A    between atoms: _135  and  _138
REMARK   53  A    between atoms: _138  and  _139
REMARK   54  A    between atoms: _144  and  _146
REMARK   55  A    between atoms: _146  and  _147
REMARK   56  A    between atoms: _146  and  _149
REMARK   57  A    between atoms: _152  and  _154
REMARK   58  A    between atoms: _154  and  _155
REMARK   59  A    between atoms: _154  and  _157
REMARK   60  A    between atoms: _159  and  _161
REMARK   61  A    between atoms: _161  and  _162
REMARK   62  A    between atoms: _161  and  _164
REMARK   63  A    between atoms: _164  and  _165
REMARK   64  A    between atoms: _170  and  _172
REMARK   65  A    between atoms: _172  and  _173
REMARK   66  A    between atoms: _176  and  _178
REMARK   67  A    between atoms: _178  and  _179
REMARK   68  A    between atoms: _178  and  _181
REMARK   69  A    between atoms: _181  and  _182
REMARK   70  A    between atoms: _184  and  _186
REMARK   71  A    between atoms: _186  and  _187
REMARK   72  A    between atoms: _190  and  _192
REMARK   73  A    between atoms: _192  and  _193
REMARK   74  A    between atoms: _192  and  _195
REMARK   75  A    between atoms: _195  and  _196
REMARK   76  A    between atoms: _206  and  _208
REMARK   77  A    between atoms: _208  and  _209
REMARK   78  A    between atoms: _208  and  _211
REMARK   79  A    between atoms: _211  and  _212
REMARK   80  A    between atoms: _215  and  _217
REMARK   81  A    between atoms: _217  and  _218
REMARK   82  A    between atoms: _217  and  _220
REMARK   83  A    between atoms: _220  and  _221
REMARK   84  A    between atoms: _226  and  _227
REMARK   85  A    between atoms: _229  and  _231
REMARK   86  A    between atoms: _231  and  _232
REMARK   87  A    between atoms: _231  and  _234
REMARK   88  A    between atoms: _234  and  _235
REMARK   89  A    between atoms: _235  and  _236
REMARK   90  A    between atoms: _236  and  _237
REMARK   91  A    between atoms: _246  and  _248
REMARK   92  A    between atoms: _248  and  _249
REMARK   93  A    between atoms: _248  and  _251
REMARK   94  A    between atoms: _251  and  _252
REMARK   95  A    between atoms: _255  and  _257
REMARK   96  A    between atoms: _257  and  _258
REMARK   97  A    between atoms: _257  and  _260
REMARK   98  A    between atoms: _260  and  _261
REMARK   99  A    between atoms: _261  and  _262
REMARK  100  A    between atoms: _262  and  _263
REMARK  101  A    between atoms: _263  and  _264
REMARK  102  A    between atoms: _268  and  _270
REMARK  103  A    between atoms: _270  and  _271
REMARK  104  A    between atoms: _270  and  _273
REMARK  105  A    between atoms: _273  and  _274
REMARK  106  A    between atoms: _274  and  _275
REMARK  107  A    between atoms: _280  and  _282
REMARK  108  A    between atoms: _282  and  _283
REMARK  109  A    between atoms: _282  and  _285
REMARK  110  A    between atoms: _285  and  _286
REMARK  111  A    between atoms: _289  and  _291
REMARK  112  A    between atoms: _291  and  _292
REMARK  113  A    between atoms: _291  and  _294
REMARK  114  A    between atoms: _294  and  _295
REMARK  115  A    between atoms: _295  and  _296
REMARK  116  A    between atoms: _299  and  _301
REMARK  117  A    between atoms: _301  and  _302
REMARK  118  A    between atoms: _301  and  _304
REMARK  119  A    between atoms: _304  and  _305
REMARK  120  A    between atoms: _308  and  _310
REMARK  121  A    between atoms: _310  and  _311
REMARK  122  A    between atoms: _310  and  _313
REMARK  123  A    between atoms: _313  and  _314
REMARK  124  A    between atoms: _317  and  _319
REMARK  125  A    between atoms: _319  and  _320
REMARK  126  A    between atoms: _319  and  _322
REMARK  127  A    between atoms: _325  and  _327
REMARK  128  A    between atoms: _327  and  _328
REMARK  129  A    between atoms: _327  and  _330
REMARK  130  A    between atoms: _333  and  _335
REMARK  131  A    between atoms: _335  and  _336
REMARK  132  A    between atoms: _339  and  _341
REMARK  133  A    between atoms: _341  and  _342
REMARK  134  A    between atoms: _341  and  _344
REMARK  135  A    between atoms: _344  and  _345
REMARK  136  A    between atoms: _350  and  _352
REMARK  137  A    between atoms: _352  and  _353
REMARK  138  A    between atoms: _352  and  _355
REMARK  139  A    between atoms: _355  and  _356
REMARK  140  A    between atoms: _360  and  ZN_772
REMARK  141  A    between atoms: _361  and  _363
REMARK  142  A    between atoms: _363  and  _364
REMARK  143  A    between atoms: _363  and  _366
REMARK  144  A    between atoms: _366  and  _367
REMARK  145  A    between atoms: _367  and  _368
REMARK  146  A    between atoms: _371  and  _373
REMARK  147  A    between atoms: _373  and  _374
REMARK  148  A    between atoms: _373  and  _376
REMARK  149  A    between atoms: _376  and  _377
REMARK  150  A    between atoms: _377  and  _378
REMARK  151  A    between atoms: _380  and  _382
REMARK  152  A    between atoms: _382  and  _383
REMARK  153  A    between atoms: _382  and  _385
REMARK  154  A    between atoms: _385  and  _386
REMARK  155  A    between atoms: _390  and  ZN_772
REMARK  156  A    between atoms: _391  and  _393
REMARK  157  A    between atoms: _393  and  _394
REMARK  158  A    between atoms: _393  and  _396
REMARK  159  A    between atoms: _396  and  _397
REMARK  160  A    between atoms: _400  and  _402
REMARK  161  A    between atoms: _402  and  _403
REMARK  162  A    between atoms: _402  and  _405
REMARK  163  A    between atoms: _405  and  _406
REMARK  164  A    between atoms: _411  and  _412
REMARK  165  A    between atoms: _414  and  _416
REMARK  166  A    between atoms: _416  and  _417
REMARK  167  A    between atoms: _416  and  _419
REMARK  168  A    between atoms: _419  and  _420
REMARK  169  A    between atoms: _426  and  _428
REMARK  170  A    between atoms: _428  and  _429
REMARK  171  A    between atoms: _428  and  _431
REMARK  172  A    between atoms: _431  and  _432
REMARK  173  A    between atoms: _437  and  _438
REMARK  174  A    between atoms: _440  and  _442
REMARK  175  A    between atoms: _442  and  _443
REMARK  176  A    between atoms: _442  and  _445
REMARK  177  A    between atoms: _445  and  _446
REMARK  178  A    between atoms: _446  and  _447
REMARK  179  A    between atoms: _447  and  _448
REMARK  180  A    between atoms: _457  and  _459
REMARK  181  A    between atoms: _459  and  _460
REMARK  182  A    between atoms: _459  and  _462
REMARK  183  A    between atoms: _462  and  _463
REMARK  184  A    between atoms: _463  and  _464
REMARK  185  A    between atoms: _467  and  _469
REMARK  186  A    between atoms: _469  and  _470
REMARK  187  A    between atoms: _472  and  _474
REMARK  188  A    between atoms: _474  and  _475
REMARK  189  A    between atoms: _474  and  _477
REMARK  190  A    between atoms: _477  and  _478
REMARK  191  A    between atoms: _484  and  _485
REMARK  192  A    between atoms: _490  and  _492
REMARK  193  A    between atoms: _492  and  _493
REMARK  194  A    between atoms: _495  and  _497
REMARK  195  A    between atoms: _497  and  _498
REMARK  196  A    between atoms: _497  and  _500
REMARK  197  A    between atoms: _500  and  _501
REMARK  198  A    between atoms: _507  and  _509
REMARK  199  A    between atoms: _509  and  _510
REMARK  200  A    between atoms: _509  and  _512
REMARK  201  A    between atoms: _512  and  _513
REMARK  202  A    between atoms: _518  and  _520
REMARK  203  A    between atoms: _520  and  _521
REMARK  204  A    between atoms: _520  and  _523
REMARK  205  A    between atoms: _523  and  _524
REMARK  206  A    between atoms: _524  and  _525
REMARK  207  A    between atoms: _525  and  _526
REMARK  208  A    between atoms: _526  and  ZN_772
REMARK  209  A    between atoms: _528  and  _530
REMARK  210  A    between atoms: _530  and  _531
REMARK  211  A    between atoms: _534  and  _536
REMARK  212  A    between atoms: _536  and  _537
REMARK  213  A    between atoms: _539  and  _541
REMARK  214  A    between atoms: _541  and  _542
REMARK  215  A    between atoms: _541  and  _544
REMARK  216  A    between atoms: _544  and  _545
REMARK  217  A    between atoms: _548  and  _550
REMARK  218  A    between atoms: _550  and  _551
REMARK  219  A    between atoms: _554  and  _556
REMARK  220  A    between atoms: _556  and  _557
REMARK  221  A    between atoms: _556  and  _559
REMARK  222  A    between atoms: _559  and  _560
REMARK  223  A    between atoms: _563  and  _565
REMARK  224  A    between atoms: _565  and  _566
REMARK  225  A    between atoms: _565  and  _568
REMARK  226  A    between atoms: _568  and  _569
REMARK  227  A    between atoms: _569  and  _570
REMARK  228  A    between atoms: _570  and  _571
REMARK  229  A    between atoms: _571  and  _572
REMARK  230  A    between atoms: _576  and  _578
REMARK  231  A    between atoms: _578  and  _579
REMARK  232  A    between atoms: _578  and  _581
REMARK  233  A    between atoms: _581  and  _582
REMARK  234  A    between atoms: _588  and  _590
REMARK  235  A    between atoms: _590  and  _591
REMARK  236  A    between atoms: _590  and  _593
REMARK  237  A    between atoms: _593  and  _594
REMARK  238  A    between atoms: _600  and  _602
REMARK  239  A    between atoms: _602  and  _603
REMARK  240  A    between atoms: _602  and  _605
REMARK  241  A    between atoms: _605  and  _606
REMARK  242  A    between atoms: _608  and  _610
REMARK  243  A    between atoms: _610  and  _611
REMARK  244  A    between atoms: _610  and  _613
REMARK  245  A    between atoms: _616  and  _618
REMARK  246  A    between atoms: _618  and  _619
REMARK  247  A    between atoms: _618  and  _621
REMARK  248  A    between atoms: _621  and  _622
REMARK  249  A    between atoms: _622  and  _623
REMARK  250  A    between atoms: _623  and  _624
REMARK  251  A    between atoms: _624  and  _625
REMARK  252  A    between atoms: _629  and  _631
REMARK  253  A    between atoms: _631  and  _632
REMARK  254  A    between atoms: _631  and  _634
REMARK  255  A    between atoms: _634  and  _635
REMARK  256  A    between atoms: _641  and  _643
REMARK  257  A    between atoms: _643  and  _644
REMARK  258  A    between atoms: _643  and  _646
REMARK  259  A    between atoms: _646  and  _647
REMARK  260  A    between atoms: _652  and  _654
REMARK  261  A    between atoms: _654  and  _655
REMARK  262  A    between atoms: _654  and  _657
REMARK  263  A    between atoms: _657  and  _658
REMARK  264  A    between atoms: _660  and  _662
REMARK  265  A    between atoms: _662  and  _663
REMARK  266  A    between atoms: _662  and  _665
REMARK  267  A    between atoms: _665  and  _666
REMARK  268  A    between atoms: _668  and  _670
REMARK  269  A    between atoms: _670  and  _671
REMARK  270  A    between atoms: _670  and  _673
REMARK  271  A    between atoms: _677  and  _678
REMARK  272  A    between atoms: _683  and  _685
REMARK  273  A    between atoms: _685  and  _686
REMARK  274  A    between atoms: _685  and  _688
REMARK  275  A    between atoms: _688  and  _689
REMARK  276  A    between atoms: _694  and  _695
REMARK  277  A    between atoms: _697  and  _699
REMARK  278  A    between atoms: _699  and  _700
REMARK  279  A    between atoms: _699  and  _702
REMARK  280  A    between atoms: _702  and  _703
REMARK  281  A    between atoms: _703  and  _704
REMARK  282  A    between atoms: _704  and  _705
REMARK  283  A    between atoms: _714  and  _716
REMARK  284  A    between atoms: _716  and  _717
REMARK  285  A    between atoms: _716  and  _719
REMARK  286  A    between atoms: _719  and  _720
REMARK  287  A    between atoms: _725  and  _726
REMARK  288  A    between atoms: _728  and  _730
REMARK  289  A    between atoms: _730  and  _731
REMARK  290  A    between atoms: _730  and  _733
REMARK  291  A    between atoms: _733  and  _734
REMARK  292  A    between atoms: _740  and  _742
REMARK  293  A    between atoms: _742  and  _743
REMARK  294  A    between atoms: _742  and  _745
REMARK  295  A    between atoms: _745  and  _746
REMARK  296  A    between atoms: _748  and  _750
REMARK  297  A    between atoms: _750  and  _751
REMARK  298  A    between atoms: _750  and  _753
REMARK  299  A    between atoms: _753  and  _754
REMARK  300  A    between atoms: _760  and  _762
REMARK  301  A    between atoms: _762  and  _763
REMARK  302  A    between atoms: _762  and  _765
REMARK  303  A    between atoms: _765  and  _766
REMARK  304  A    between atoms: _766  and  _767
REMARK                            x       y       z     vdW  Elec       q    Type
REMARK                         _______ _______ _______ _____ _____    ______ ____
ROOT
ATOM      1  O   HOH     1      16.541  -0.075  -9.509  0.00  0.00    +0.000 OA
ENDROOT
TORSDOF 0
REMARK  Name = ../refined-set-2016/2xy9/2xy9_pocket.pdb
REMARK  304 active torsions:
REMARK  status: ('A' for Active; 'I' for Inactive)
REMARK    1  A    between atoms: _1  and  _3
REMARK    2  A    between atoms: _3  and  _4
REMARK    3  A    between atoms: _3  and  _6
REMARK    4  A    between atoms: _6  and  _7
REMARK    5  A    between atoms: _12  and  _14
REMARK    6  A    between atoms: _14  and  _15
REMARK    7  A    between atoms: _14  and  _17
REMARK    8  A    between atoms: _17  and  _18
REMARK    9  A    between atoms: _23  and  _25
REMARK   10  A    between atoms: _25  and  _26
REMARK   11  A    between atoms: _25  and  _28
REMARK   12  A    between atoms: _28  and  _29
REMARK   13  A    between atoms: _29  and  _30
REMARK   14  A    between atoms: _33  and  _35
REMARK   15  A    between atoms: _35  and  _36
REMARK   16  A    between atoms: _35  and  _38
REMARK   17  A    between atoms: _38  and  _39
REMARK   18  A    between atoms: _44  and  _45
REMARK   19  A    between atoms: _47  and  _49
REMARK   20  A    between atoms: _49  and  _50
REMARK   21  A    between atoms: _49  and  _52
REMARK   22  A    between atoms: _52  and  _53
REMARK   23  A    between atoms: _56  and  _58
REMARK   24  A    between atoms: _58  and  _59
REMARK   25  A    between atoms: _61  and  _63
REMARK   26  A    between atoms: _63  and  _64
REMARK   27  A    between atoms: _63  and  _66
REMARK   28  A    between atoms: _66  and  _67
REMARK   29  A    between atoms: _72  and  _74
REMARK   30  A    between atoms: _74  and  _75
REMARK   31  A    between atoms: _74  and  _77
REMARK   32  A    between atoms: _77  and  _78
REMARK   33  A    between atoms: _88  and  _90
REMARK   34  A    between atoms: _90  and  _91
REMARK   35  A    between atoms: _90  and  _93
REMARK   36  A    between atoms: _93  and  _94
REMARK   37  A    between atoms: _94  and  _95
REMARK   38  A    between atoms: _100  and  _102
REMARK   39  A    between atoms: _102  and  _103
REMARK   40  A    between atoms: _102  and  _105
REMARK   41  A    between atoms: _105  and  _106
REMARK   42  A    between atoms: _109  and  _111
REMARK   43  A    between atoms: _111  and  _112
REMARK   44  A    between atoms: _111  and  _114
REMARK   45  A    between atoms: _114  and  _115
REMARK   46  A    between atoms: _125  and  _127
REMARK   47  A    between atoms: _127  and  _128
REMARK   48  A    between atoms: _127  and  _130
REMARK   49  A    between atoms: _130  and  _131
REMARK   50  A    between atoms: _133  and  _135
REMARK   51  A    between atoms: _135  and  _136
REMARK   52  A    between atoms: _135  and  _138
REMARK   53  A    between atoms: _138  and  _139
REMARK   54  A    between atoms: _144  and  _146
REMARK   55  A    between atoms: _146  and  _147
REMARK   56  A    between atoms: _146  and  _149
REMARK   57  A    between atoms: _152  and  _154
REMARK   58  A    between atoms: _154  and  _155
REMARK   59  A    between atoms: _154  and  _157
REMARK   60  A    between atoms: _159  and  _161
REMARK   61  A    between atoms: _161  and  _162
REMARK   62  A    between atoms: _161  and  _164
REMARK   63  A    between atoms: _164  and  _165
REMARK   64  A    between atoms: _170  and  _172
REMARK   65  A    between atoms: _172  and  _173
REMARK   66  A    between atoms: _176  and  _178
REMARK   67  A    between atoms: _178  and  _179
REMARK   68  A    between atoms: _178  and  _181
REMARK   69  A    between atoms: _181  and  _182
REMARK   70  A    between atoms: _184  and  _186
REMARK   71  A    between atoms: _186  and  _187
REMARK   72  A    between atoms: _190  and  _192
REMARK   73  A    between atoms: _192  and  _193
REMARK   74  A    between atoms: _192  and  _195
REMARK   75  A    between atoms: _195  and  _196
REMARK   76  A    between atoms: _206  and  _208
REMARK   77  A    between atoms: _208  and  _209
REMARK   78  A    between atoms: _208  and  _211
REMARK   79  A    between atoms: _211  and  _212
REMARK   80  A    between atoms: _215  and  _217
REMARK   81  A    between atoms: _217  and  _218
REMARK   82  A    between atoms: _217  and  _220
REMARK   83  A    between atoms: _220  and  _221
REMARK   84  A    between atoms: _226  and  _227
REMARK   85  A    between atoms: _229  and  _231
REMARK   86  A    between atoms: _231  and  _232
REMARK   87  A    between atoms: _231  and  _234
REMARK   88  A    between atoms: _234  and  _235
REMARK   89  A    between atoms: _235  and  _236
REMARK   90  A    between atoms: _236  and  _237
REMARK   91  A    between atoms: _246  and  _248
REMARK   92  A    between atoms: _248  and  _249
REMARK   93  A    between atoms: _248  and  _251
REMARK   94  A    between atoms: _251  and  _252
REMARK   95  A    between atoms: _255  and  _257
REMARK   96  A    between atoms: _257  and  _258
REMARK   97  A    between atoms: _257  and  _260
REMARK   98  A    between atoms: _260  and  _261
REMARK   99  A    between atoms: _261  and  _262
REMARK  100  A    between atoms: _262  and  _263
REMARK  101  A    between atoms: _263  and  _264
REMARK  102  A    between atoms: _268  and  _270
REMARK  103  A    between atoms: _270  and  _271
REMARK  104  A    between atoms: _270  and  _273
REMARK  105  A    between atoms: _273  and  _274
REMARK  106  A    between atoms: _274  and  _275
REMARK  107  A    between atoms: _280  and  _282
REMARK  108  A    between atoms: _282  and  _283
REMARK  109  A    between atoms: _282  and  _285
REMARK  110  A    between atoms: _285  and  _286
REMARK  111  A    between atoms: _289  and  _291
REMARK  112  A    between atoms: _291  and  _292
REMARK  113  A    between atoms: _291  and  _294
REMARK  114  A    between atoms: _294  and  _295
REMARK  115  A    between atoms: _295  and  _296
REMARK  116  A    between atoms: _299  and  _301
REMARK  117  A    between atoms: _301  and  _302
REMARK  118  A    between atoms: _301  and  _304
REMARK  119  A    between atoms: _304  and  _305
REMARK  120  A    between atoms: _308  and  _310
REMARK  121  A    between atoms: _310  and  _311
REMARK  122  A    between atoms: _310  and  _313
REMARK  123  A    between atoms: _313  and  _314
REMARK  124  A    between atoms: _317  and  _319
REMARK  125  A    between atoms: _319  and  _320
REMARK  126  A    between atoms: _319  and  _322
REMARK  127  A    between atoms: _325  and  _327
REMARK  128  A    between atoms: _327  and  _328
REMARK  129  A    between atoms: _327  and  _330
REMARK  130  A    between atoms: _333  and  _335
REMARK  131  A    between atoms: _335  and  _336
REMARK  132  A    between atoms: _339  and  _341
REMARK  133  A    between atoms: _341  and  _342
REMARK  134  A    between atoms: _341  and  _344
REMARK  135  A    between atoms: _344  and  _345
REMARK  136  A    between atoms: _350  and  _352
REMARK  137  A    between atoms: _352  and  _353
REMARK  138  A    between atoms: _352  and  _355
REMARK  139  A    between atoms: _355  and  _356
REMARK  140  A    between atoms: _360  and  ZN_772
REMARK  141  A    between atoms: _361  and  _363
REMARK  142  A    between atoms: _363  and  _364
REMARK  143  A    between atoms: _363  and  _366
REMARK  144  A    between atoms: _366  and  _367
REMARK  145  A    between atoms: _367  and  _368
REMARK  146  A    between atoms: _371  and  _373
REMARK  147  A    between atoms: _373  and  _374
REMARK  148  A    between atoms: _373  and  _376
REMARK  149  A    between atoms: _376  and  _377
REMARK  150  A    between atoms: _377  and  _378
REMARK  151  A    between atoms: _380  and  _382
REMARK  152  A    between atoms: _382  and  _383
REMARK  153  A    between atoms: _382  and  _385
REMARK  154  A    between atoms: _385  and  _386
REMARK  155  A    between atoms: _390  and  ZN_772
REMARK  156  A    between atoms: _391  and  _393
REMARK  157  A    between atoms: _393  and  _394
REMARK  158  A    between atoms: _393  and  _396
REMARK  159  A    between atoms: _396  and  _397
REMARK  160  A    between atoms: _400  and  _402
REMARK  161  A    between atoms: _402  and  _403
REMARK  162  A    between atoms: _402  and  _405
REMARK  163  A    between atoms: _405  and  _406
REMARK  164  A    between atoms: _411  and  _412
REMARK  165  A    between atoms: _414  and  _416
REMARK  166  A    between atoms: _416  and  _417
REMARK  167  A    between atoms: _416  and  _419
REMARK  168  A    between atoms: _419  and  _420
REMARK  169  A    between atoms: _426  and  _428
REMARK  170  A    between atoms: _428  and  _429
REMARK  171  A    between atoms: _428  and  _431
REMARK  172  A    between atoms: _431  and  _432
REMARK  173  A    between atoms: _437  and  _438
REMARK  174  A    between atoms: _440  and  _442
REMARK  175  A    between atoms: _442  and  _443
REMARK  176  A    between atoms: _442  and  _445
REMARK  177  A    between atoms: _445  and  _446
REMARK  178  A    between atoms: _446  and  _447
REMARK  179  A    between atoms: _447  and  _448
REMARK  180  A    between atoms: _457  and  _459
REMARK  181  A    between atoms: _459  and  _460
REMARK  182  A    between atoms: _459  and  _462
REMARK  183  A    between atoms: _462  and  _463
REMARK  184  A    between atoms: _463  and  _464
REMARK  185  A    between atoms: _467  and  _469
REMARK  186  A    between atoms: _469  and  _470
REMARK  187  A    between atoms: _472  and  _474
REMARK  188  A    between atoms: _474  and  _475
REMARK  189  A    between atoms: _474  and  _477
REMARK  190  A    between atoms: _477  and  _478
REMARK  191  A    between atoms: _484  and  _485
REMARK  192  A    between atoms: _490  and  _492
REMARK  193  A    between atoms: _492  and  _493
REMARK  194  A    between atoms: _495  and  _497
REMARK  195  A    between atoms: _497  and  _498
REMARK  196  A    between atoms: _497  and  _500
REMARK  197  A    between atoms: _500  and  _501
REMARK  198  A    between atoms: _507  and  _509
REMARK  199  A    between atoms: _509  and  _510
REMARK  200  A    between atoms: _509  and  _512
REMARK  201  A    between atoms: _512  and  _513
REMARK  202  A    between atoms: _518  and  _520
REMARK  203  A    between atoms: _520  and  _521
REMARK  204  A    between atoms: _520  and  _523
REMARK  205  A    between atoms: _523  and  _524
REMARK  206  A    between atoms: _524  and  _525
REMARK  207  A    between atoms: _525  and  _526
REMARK  208  A    between atoms: _526  and  ZN_772
REMARK  209  A    between atoms: _528  and  _530
REMARK  210  A    between atoms: _530  and  _531
REMARK  211  A    between atoms: _534  and  _536
REMARK  212  A    between atoms: _536  and  _537
REMARK  213  A    between atoms: _539  and  _541
REMARK  214  A    between atoms: _541  and  _542
REMARK  215  A    between atoms: _541  and  _544
REMARK  216  A    between atoms: _544  and  _545
REMARK  217  A    between atoms: _548  and  _550
REMARK  218  A    between atoms: _550  and  _551
REMARK  219  A    between atoms: _554  and  _556
REMARK  220  A    between atoms: _556  and  _557
REMARK  221  A    between atoms: _556  and  _559
REMARK  222  A    between atoms: _559  and  _560
REMARK  223  A    between atoms: _563  and  _565
REMARK  224  A    between atoms: _565  and  _566
REMARK  225  A    between atoms: _565  and  _568
REMARK  226  A    between atoms: _568  and  _569
REMARK  227  A    between atoms: _569  and  _570
REMARK  228  A    between atoms: _570  and  _571
REMARK  229  A    between atoms: _571  and  _572
REMARK  230  A    between atoms: _576  and  _578
REMARK  231  A    between atoms: _578  and  _579
REMARK  232  A    between atoms: _578  and  _581
REMARK  233  A    between atoms: _581  and  _582
REMARK  234  A    between atoms: _588  and  _590
REMARK  235  A    between atoms: _590  and  _591
REMARK  236  A    between atoms: _590  and  _593
REMARK  237  A    between atoms: _593  and  _594
REMARK  238  A    between atoms: _600  and  _602
REMARK  239  A    between atoms: _602  and  _603
REMARK  240  A    between atoms: _602  and  _605
REMARK  241  A    between atoms: _605  and  _606
REMARK  242  A    between atoms: _608  and  _610
REMARK  243  A    between atoms: _610  and  _611
REMARK  244  A    between atoms: _610  and  _613
REMARK  245  A    between atoms: _616  and  _618
REMARK  246  A    between atoms: _618  and  _619
REMARK  247  A    between atoms: _618  and  _621
REMARK  248  A    between atoms: _621  and  _622
REMARK  249  A    between atoms: _622  and  _623
REMARK  250  A    between atoms: _623  and  _624
REMARK  251  A    between atoms: _624  and  _625
REMARK  252  A    between atoms: _629  and  _631
REMARK  253  A    between atoms: _631  and  _632
REMARK  254  A    between atoms: _631  and  _634
REMARK  255  A    between atoms: _634  and  _635
REMARK  256  A    between atoms: _641  and  _643
REMARK  257  A    between atoms: _643  and  _644
REMARK  258  A    between atoms: _643  and  _646
REMARK  259  A    between atoms: _646  and  _647
REMARK  260  A    between atoms: _652  and  _654
REMARK  261  A    between atoms: _654  and  _655
REMARK  262  A    between atoms: _654  and  _657
REMARK  263  A    between atoms: _657  and  _658
REMARK  264  A    between atoms: _660  and  _662
REMARK  265  A    between atoms: _662  and  _663
REMARK  266  A    between atoms: _662  and  _665
REMARK  267  A    between atoms: _665  and  _666
REMARK  268  A    between atoms: _668  and  _670
REMARK  269  A    between atoms: _670  and  _671
REMARK  270  A    between atoms: _670  and  _673
REMARK  271  A    between atoms: _677  and  _678
REMARK  272  A    between atoms: _683  and  _685
REMARK  273  A    between atoms: _685  and  _686
REMARK  274  A    between atoms: _685  and  _688
REMARK  275  A    between atoms: _688  and  _689
REMARK  276  A    between atoms: _694  and  _695
REMARK  277  A    between atoms: _697  and  _699
REMARK  278  A    between atoms: _699  and  _700
REMARK  279  A    between atoms: _699  and  _702
REMARK  280  A    between atoms: _702  and  _703
REMARK  281  A    between atoms: _703  and  _704
REMARK  282  A    between atoms: _704  and  _705
REMARK  283  A    between atoms: _714  and  _716
REMARK  284  A    between atoms: _716  and  _717
REMARK  285  A    between atoms: _716  and  _719
REMARK  286  A    between atoms: _719  and  _720
REMARK  287  A    between atoms: _725  and  _726
REMARK  288  A    between atoms: _728  and  _730
REMARK  289  A    between atoms: _730  and  _731
REMARK  290  A    between atoms: _730  and  _733
REMARK  291  A    between atoms: _733  and  _734
REMARK  292  A    between atoms: _740  and  _742
REMARK  293  A    between atoms: _742  and  _743
REMARK  294  A    between atoms: _742  and  _745
REMARK  295  A    between atoms: _745  and  _746
REMARK  296  A    between atoms: _748  and  _750
REMARK  297  A    between atoms: _750  and  _751
REMARK  298  A    between atoms: _750  and  _753
REMARK  299  A    between atoms: _753  and  _754
REMARK  300  A    between atoms: _760  and  _762
REMARK  301  A    between atoms: _762  and  _763
REMARK  302  A    between atoms: _762  and  _765
REMARK  303  A    between atoms: _765  and  _766
REMARK  304  A    between atoms: _766  and  _767
REMARK                            x       y       z     vdW  Elec       q    Type
REMARK                         _______ _______ _______ _____ _____    ______ ____
ROOT
ATOM      1  O   HOH     1       8.045   3.235 -11.265  0.00  0.00    +0.000 OA
ENDROOT
TORSDOF 0
