REMARK  Name = ../refined-set-2016/3g2i/3g2i_pocket.pdb
REMARK  248 active torsions:
REMARK  status: ('A' for Active; 'I' for Inactive)
REMARK    1  A    between atoms: _1  and  _3
REMARK    2  A    between atoms: _3  and  _4
REMARK    3  A    between atoms: _3  and  _6
REMARK    4  A    between atoms: _6  and  _7
REMARK    5  A    between atoms: _12  and  _13
REMARK    6  A    between atoms: _15  and  _17
REMARK    7  A    between atoms: _17  and  _18
REMARK    8  A    between atoms: _17  and  _20
REMARK    9  A    between atoms: _20  and  _21
REMARK   10  A    between atoms: _21  and  _22
REMARK   11  A    between atoms: _25  and  _27
REMARK   12  A    between atoms: _27  and  _28
REMARK   13  A    between atoms: _27  and  _30
REMARK   14  A    between atoms: _30  and  _31
REMARK   15  A    between atoms: _36  and  _38
REMARK   16  A    between atoms: _38  and  _39
REMARK   17  A    between atoms: _41  and  _43
REMARK   18  A    between atoms: _43  and  _44
REMARK   19  A    between atoms: _46  and  _48
REMARK   20  A    between atoms: _48  and  _49
REMARK   21  A    between atoms: _48  and  _51
REMARK   22  A    between atoms: _51  and  _52
REMARK   23  A    between atoms: _55  and  _57
REMARK   24  A    between atoms: _57  and  _58
REMARK   25  A    between atoms: _60  and  _62
REMARK   26  A    between atoms: _62  and  _63
REMARK   27  A    between atoms: _62  and  _65
REMARK   28  A    between atoms: _65  and  _66
REMARK   29  A    between atoms: _66  and  _67
REMARK   30  A    between atoms: _67  and  _68
REMARK   31  A    between atoms: _77  and  _79
REMARK   32  A    between atoms: _79  and  _80
REMARK   33  A    between atoms: _79  and  _82
REMARK   34  A    between atoms: _82  and  _83
REMARK   35  A    between atoms: _86  and  _88
REMARK   36  A    between atoms: _88  and  _89
REMARK   37  A    between atoms: _92  and  _94
REMARK   38  A    between atoms: _94  and  _95
REMARK   39  A    between atoms: _94  and  _97
REMARK   40  A    between atoms: _97  and  _98
REMARK   41  A    between atoms: _104  and  _106
REMARK   42  A    between atoms: _106  and  _107
REMARK   43  A    between atoms: _106  and  _109
REMARK   44  A    between atoms: _109  and  _110
REMARK   45  A    between atoms: _115  and  _117
REMARK   46  A    between atoms: _117  and  _118
REMARK   47  A    between atoms: _117  and  _120
REMARK   48  A    between atoms: _120  and  _121
REMARK   49  A    between atoms: _124  and  _126
REMARK   50  A    between atoms: _126  and  _127
REMARK   51  A    between atoms: _126  and  _129
REMARK   52  A    between atoms: _129  and  _130
REMARK   53  A    between atoms: _135  and  _137
REMARK   54  A    between atoms: _137  and  _138
REMARK   55  A    between atoms: _137  and  _140
REMARK   56  A    between atoms: _140  and  _141
REMARK   57  A    between atoms: _147  and  _149
REMARK   58  A    between atoms: _149  and  _150
REMARK   59  A    between atoms: _149  and  _152
REMARK   60  A    between atoms: _152  and  _153
REMARK   61  A    between atoms: _159  and  _161
REMARK   62  A    between atoms: _161  and  _162
REMARK   63  A    between atoms: _161  and  _164
REMARK   64  A    between atoms: _164  and  _165
REMARK   65  A    between atoms: _165  and  _166
REMARK   66  A    between atoms: _166  and  _167
REMARK   67  A    between atoms: _176  and  _178
REMARK   68  A    between atoms: _178  and  _179
REMARK   69  A    between atoms: _178  and  _181
REMARK   70  A    between atoms: _181  and  _182
REMARK   71  A    between atoms: _187  and  _189
REMARK   72  A    between atoms: _189  and  _190
REMARK   73  A    between atoms: _189  and  _192
REMARK   74  A    between atoms: _192  and  _193
REMARK   75  A    between atoms: _196  and  _198
REMARK   76  A    between atoms: _198  and  _199
REMARK   77  A    between atoms: _198  and  _201
REMARK   78  A    between atoms: _201  and  _202
REMARK   79  A    between atoms: _205  and  _207
REMARK   80  A    between atoms: _207  and  _208
REMARK   81  A    between atoms: _207  and  _210
REMARK   82  A    between atoms: _210  and  _211
REMARK   83  A    between atoms: _216  and  _218
REMARK   84  A    between atoms: _218  and  _219
REMARK   85  A    between atoms: _218  and  _221
REMARK   86  A    between atoms: _221  and  _222
REMARK   87  A    between atoms: _227  and  _228
REMARK   88  A    between atoms: _230  and  _232
REMARK   89  A    between atoms: _232  and  _233
REMARK   90  A    between atoms: _232  and  _235
REMARK   91  A    between atoms: _235  and  _236
REMARK   92  A    between atoms: _239  and  _241
REMARK   93  A    between atoms: _241  and  _242
REMARK   94  A    between atoms: _241  and  _244
REMARK   95  A    between atoms: _244  and  _245
REMARK   96  A    between atoms: _250  and  _252
REMARK   97  A    between atoms: _252  and  _253
REMARK   98  A    between atoms: _252  and  _255
REMARK   99  A    between atoms: _255  and  _256
REMARK  100  A    between atoms: _261  and  _263
REMARK  101  A    between atoms: _263  and  _264
REMARK  102  A    between atoms: _263  and  _266
REMARK  103  A    between atoms: _266  and  _267
REMARK  104  A    between atoms: _270  and  _272
REMARK  105  A    between atoms: _272  and  _273
REMARK  106  A    between atoms: _272  and  _275
REMARK  107  A    between atoms: _278  and  _280
REMARK  108  A    between atoms: _280  and  _281
REMARK  109  A    between atoms: _280  and  _283
REMARK  110  A    between atoms: _283  and  _284
REMARK  111  A    between atoms: _287  and  _289
REMARK  112  A    between atoms: _289  and  _290
REMARK  113  A    between atoms: _289  and  _292
REMARK  114  A    between atoms: _292  and  _293
REMARK  115  A    between atoms: _293  and  _294
REMARK  116  A    between atoms: _297  and  _299
REMARK  117  A    between atoms: _299  and  _300
REMARK  118  A    between atoms: _303  and  _305
REMARK  119  A    between atoms: _305  and  _306
REMARK  120  A    between atoms: _305  and  _308
REMARK  121  A    between atoms: _308  and  _309
REMARK  122  A    between atoms: _312  and  _314
REMARK  123  A    between atoms: _314  and  _315
REMARK  124  A    between atoms: _314  and  _317
REMARK  125  A    between atoms: _317  and  _318
REMARK  126  A    between atoms: _318  and  _319
REMARK  127  A    between atoms: _322  and  _324
REMARK  128  A    between atoms: _324  and  _325
REMARK  129  A    between atoms: _324  and  _327
REMARK  130  A    between atoms: _327  and  _328
REMARK  131  A    between atoms: _333  and  _335
REMARK  132  A    between atoms: _335  and  _336
REMARK  133  A    between atoms: _338  and  _340
REMARK  134  A    between atoms: _340  and  _341
REMARK  135  A    between atoms: _340  and  _343
REMARK  136  A    between atoms: _346  and  _348
REMARK  137  A    between atoms: _348  and  _349
REMARK  138  A    between atoms: _352  and  _354
REMARK  139  A    between atoms: _354  and  _355
REMARK  140  A    between atoms: _354  and  _357
REMARK  141  A    between atoms: _357  and  _358
REMARK  142  A    between atoms: _363  and  _365
REMARK  143  A    between atoms: _365  and  _366
REMARK  144  A    between atoms: _365  and  _368
REMARK  145  A    between atoms: _368  and  _369
REMARK  146  A    between atoms: _369  and  _370
REMARK  147  A    between atoms: _370  and  _371
REMARK  148  A    between atoms: _371  and  _372
REMARK  149  A    between atoms: _376  and  _378
REMARK  150  A    between atoms: _378  and  _379
REMARK  151  A    between atoms: _378  and  _381
REMARK  152  A    between atoms: _381  and  _382
REMARK  153  A    between atoms: _385  and  _387
REMARK  154  A    between atoms: _387  and  _388
REMARK  155  A    between atoms: _387  and  _390
REMARK  156  A    between atoms: _390  and  _391
REMARK  157  A    between atoms: _396  and  _398
REMARK  158  A    between atoms: _398  and  _399
REMARK  159  A    between atoms: _401  and  _403
REMARK  160  A    between atoms: _403  and  _404
REMARK  161  A    between atoms: _403  and  _406
REMARK  162  A    between atoms: _406  and  _407
REMARK  163  A    between atoms: _407  and  _408
REMARK  164  A    between atoms: _408  and  _409
REMARK  165  A    between atoms: _409  and  _410
REMARK  166  A    between atoms: _414  and  _416
REMARK  167  A    between atoms: _416  and  _417
REMARK  168  A    between atoms: _416  and  _419
REMARK  169  A    between atoms: _419  and  _420
REMARK  170  A    between atoms: _420  and  _421
REMARK  171  A    between atoms: _421  and  _422
REMARK  172  A    between atoms: _431  and  _433
REMARK  173  A    between atoms: _433  and  _434
REMARK  174  A    between atoms: _433  and  _436
REMARK  175  A    between atoms: _436  and  _437
REMARK  176  A    between atoms: _442  and  _444
REMARK  177  A    between atoms: _444  and  _445
REMARK  178  A    between atoms: _444  and  _447
REMARK  179  A    between atoms: _447  and  _448
REMARK  180  A    between atoms: _453  and  _454
REMARK  181  A    between atoms: _456  and  _458
REMARK  182  A    between atoms: _458  and  _459
REMARK  183  A    between atoms: _458  and  _461
REMARK  184  A    between atoms: _461  and  _462
REMARK  185  A    between atoms: _462  and  _463
REMARK  186  A    between atoms: _463  and  _464
REMARK  187  A    between atoms: _464  and  _465
REMARK  188  A    between atoms: _469  and  _471
REMARK  189  A    between atoms: _471  and  _472
REMARK  190  A    between atoms: _471  and  _474
REMARK  191  A    between atoms: _474  and  _475
REMARK  192  A    between atoms: _477  and  _479
REMARK  193  A    between atoms: _479  and  _480
REMARK  194  A    between atoms: _479  and  _482
REMARK  195  A    between atoms: _482  and  _483
REMARK  196  A    between atoms: _486  and  _488
REMARK  197  A    between atoms: _488  and  _489
REMARK  198  A    between atoms: _488  and  _491
REMARK  199  A    between atoms: _491  and  _492
REMARK  200  A    between atoms: _492  and  _493
REMARK  201  A    between atoms: _496  and  _498
REMARK  202  A    between atoms: _498  and  _499
REMARK  203  A    between atoms: _502  and  _504
REMARK  204  A    between atoms: _504  and  _505
REMARK  205  A    between atoms: _504  and  _507
REMARK  206  A    between atoms: _507  and  _508
REMARK  207  A    between atoms: _510  and  _512
REMARK  208  A    between atoms: _512  and  _513
REMARK  209  A    between atoms: _515  and  _517
REMARK  210  A    between atoms: _517  and  _518
REMARK  211  A    between atoms: _517  and  _520
REMARK  212  A    between atoms: _520  and  _521
REMARK  213  A    between atoms: _524  and  _526
REMARK  214  A    between atoms: _526  and  _527
REMARK  215  A    between atoms: _529  and  _531
REMARK  216  A    between atoms: _531  and  _532
REMARK  217  A    between atoms: _531  and  _534
REMARK  218  A    between atoms: _534  and  _535
REMARK  219  A    between atoms: _540  and  _542
REMARK  220  A    between atoms: _542  and  _543
REMARK  221  A    between atoms: _542  and  _545
REMARK  222  A    between atoms: _545  and  _546
REMARK  223  A    between atoms: _546  and  _547
REMARK  224  A    between atoms: _554  and  _555
REMARK  225  A    between atoms: _555  and  _571
REMARK  226  A    between atoms: _556  and  _558
REMARK  227  A    between atoms: _558  and  _559
REMARK  228  A    between atoms: _559  and  _560
REMARK  229  A    between atoms: _564  and  _566
REMARK  230  A    between atoms: _566  and  _567
REMARK  231  A    between atoms: _566  and  _574
REMARK  232  A    between atoms: _567  and  _568
REMARK  233  A    between atoms: _568  and  _569
REMARK  234  A    between atoms: _569  and  _570
REMARK  235  A    between atoms: _570  and  _571
REMARK  236  A    between atoms: _576  and  _578
REMARK  237  A    between atoms: _578  and  _579
REMARK  238  A    between atoms: _578  and  _581
REMARK  239  A    between atoms: _581  and  _582
REMARK  240  A    between atoms: _585  and  _587
REMARK  241  A    between atoms: _587  and  _588
REMARK  242  A    between atoms: _590  and  _592
REMARK  243  A    between atoms: _592  and  _593
REMARK  244  A    between atoms: _596  and  _598
REMARK  245  A    between atoms: _598  and  _599
REMARK  246  A    between atoms: _598  and  _601
REMARK  247  A    between atoms: _601  and  _602
REMARK  248  A    between atoms: _607  and  _608
REMARK                            x       y       z     vdW  Elec       q    Type
REMARK                         _______ _______ _______ _____ _____    ______ ____
ROOT
ATOM      1  CG  TYR A   1      32.992  11.294  36.016  0.00  0.00    -0.020 A 
ATOM      2  CD2 TYR A   1      32.531  12.600  36.136  0.00  0.00    -0.001 A 
ATOM      3  CE2 TYR A   1      32.560  13.467  35.062  0.00  0.00    +0.036 A 
ATOM      4  CZ  TYR A   1      33.047  13.033  33.851  0.00  0.00    +0.134 A 
ATOM      5  CE1 TYR A   1      33.509  11.741  33.700  0.00  0.00    +0.036 A 
ATOM      6  CD1 TYR A   1      33.478  10.877  34.779  0.00  0.00    -0.001 A 
ENDROOT
BRANCH   4   7
ATOM      7  OH  TYR A   1      33.070  13.891  32.777  0.00  0.00    -0.506 OA
ATOM      8  HH  TYR A   1      33.631  14.677  32.996  0.00  0.00    +0.292 HD
ENDBRANCH   4   7
BRANCH   1   9
ATOM      9  CB  TYR A   1      32.969  10.354  37.187  0.00  0.00    +0.051 C 
BRANCH   9  10
ATOM     10  CA  TYR A   1      34.313  10.267  37.915  0.00  0.00    +0.137 C 
BRANCH  10  11
ATOM     11  N   TYR A   1      34.343   9.109  38.781  0.00  0.00    -0.239 NA
ATOM     12  H   TYR A   1      33.480   8.832  39.291  0.00  0.00    +0.142 HD
ENDBRANCH  10  11
BRANCH  10  13
ATOM     13  C   TYR A   1      34.556  11.517  38.750  0.00  0.00    +0.224 C 
ATOM     14  O   TYR A   1      33.670  11.967  39.475  0.00  0.00    -0.287 OA
ENDBRANCH  10  13
ENDBRANCH   9  10
ENDBRANCH   1   9
TORSDOF 5
REMARK  Name = ../refined-set-2016/3g2i/3g2i_pocket.pdb
REMARK  248 active torsions:
REMARK  status: ('A' for Active; 'I' for Inactive)
REMARK    1  A    between atoms: _1  and  _3
REMARK    2  A    between atoms: _3  and  _4
REMARK    3  A    between atoms: _3  and  _6
REMARK    4  A    between atoms: _6  and  _7
REMARK    5  A    between atoms: _12  and  _13
REMARK    6  A    between atoms: _15  and  _17
REMARK    7  A    between atoms: _17  and  _18
REMARK    8  A    between atoms: _17  and  _20
REMARK    9  A    between atoms: _20  and  _21
REMARK   10  A    between atoms: _21  and  _22
REMARK   11  A    between atoms: _25  and  _27
REMARK   12  A    between atoms: _27  and  _28
REMARK   13  A    between atoms: _27  and  _30
REMARK   14  A    between atoms: _30  and  _31
REMARK   15  A    between atoms: _36  and  _38
REMARK   16  A    between atoms: _38  and  _39
REMARK   17  A    between atoms: _41  and  _43
REMARK   18  A    between atoms: _43  and  _44
REMARK   19  A    between atoms: _46  and  _48
REMARK   20  A    between atoms: _48  and  _49
REMARK   21  A    between atoms: _48  and  _51
REMARK   22  A    between atoms: _51  and  _52
REMARK   23  A    between atoms: _55  and  _57
REMARK   24  A    between atoms: _57  and  _58
REMARK   25  A    between atoms: _60  and  _62
REMARK   26  A    between atoms: _62  and  _63
REMARK   27  A    between atoms: _62  and  _65
REMARK   28  A    between atoms: _65  and  _66
REMARK   29  A    between atoms: _66  and  _67
REMARK   30  A    between atoms: _67  and  _68
REMARK   31  A    between atoms: _77  and  _79
REMARK   32  A    between atoms: _79  and  _80
REMARK   33  A    between atoms: _79  and  _82
REMARK   34  A    between atoms: _82  and  _83
REMARK   35  A    between atoms: _86  and  _88
REMARK   36  A    between atoms: _88  and  _89
REMARK   37  A    between atoms: _92  and  _94
REMARK   38  A    between atoms: _94  and  _95
REMARK   39  A    between atoms: _94  and  _97
REMARK   40  A    between atoms: _97  and  _98
REMARK   41  A    between atoms: _104  and  _106
REMARK   42  A    between atoms: _106  and  _107
REMARK   43  A    between atoms: _106  and  _109
REMARK   44  A    between atoms: _109  and  _110
REMARK   45  A    between atoms: _115  and  _117
REMARK   46  A    between atoms: _117  and  _118
REMARK   47  A    between atoms: _117  and  _120
REMARK   48  A    between atoms: _120  and  _121
REMARK   49  A    between atoms: _124  and  _126
REMARK   50  A    between atoms: _126  and  _127
REMARK   51  A    between atoms: _126  and  _129
REMARK   52  A    between atoms: _129  and  _130
REMARK   53  A    between atoms: _135  and  _137
REMARK   54  A    between atoms: _137  and  _138
REMARK   55  A    between atoms: _137  and  _140
REMARK   56  A    between atoms: _140  and  _141
REMARK   57  A    between atoms: _147  and  _149
REMARK   58  A    between atoms: _149  and  _150
REMARK   59  A    between atoms: _149  and  _152
REMARK   60  A    between atoms: _152  and  _153
REMARK   61  A    between atoms: _159  and  _161
REMARK   62  A    between atoms: _161  and  _162
REMARK   63  A    between atoms: _161  and  _164
REMARK   64  A    between atoms: _164  and  _165
REMARK   65  A    between atoms: _165  and  _166
REMARK   66  A    between atoms: _166  and  _167
REMARK   67  A    between atoms: _176  and  _178
REMARK   68  A    between atoms: _178  and  _179
REMARK   69  A    between atoms: _178  and  _181
REMARK   70  A    between atoms: _181  and  _182
REMARK   71  A    between atoms: _187  and  _189
REMARK   72  A    between atoms: _189  and  _190
REMARK   73  A    between atoms: _189  and  _192
REMARK   74  A    between atoms: _192  and  _193
REMARK   75  A    between atoms: _196  and  _198
REMARK   76  A    between atoms: _198  and  _199
REMARK   77  A    between atoms: _198  and  _201
REMARK   78  A    between atoms: _201  and  _202
REMARK   79  A    between atoms: _205  and  _207
REMARK   80  A    between atoms: _207  and  _208
REMARK   81  A    between atoms: _207  and  _210
REMARK   82  A    between atoms: _210  and  _211
REMARK   83  A    between atoms: _216  and  _218
REMARK   84  A    between atoms: _218  and  _219
REMARK   85  A    between atoms: _218  and  _221
REMARK   86  A    between atoms: _221  and  _222
REMARK   87  A    between atoms: _227  and  _228
REMARK   88  A    between atoms: _230  and  _232
REMARK   89  A    between atoms: _232  and  _233
REMARK   90  A    between atoms: _232  and  _235
REMARK   91  A    between atoms: _235  and  _236
REMARK   92  A    between atoms: _239  and  _241
REMARK   93  A    between atoms: _241  and  _242
REMARK   94  A    between atoms: _241  and  _244
REMARK   95  A    between atoms: _244  and  _245
REMARK   96  A    between atoms: _250  and  _252
REMARK   97  A    between atoms: _252  and  _253
REMARK   98  A    between atoms: _252  and  _255
REMARK   99  A    between atoms: _255  and  _256
REMARK  100  A    between atoms: _261  and  _263
REMARK  101  A    between atoms: _263  and  _264
REMARK  102  A    between atoms: _263  and  _266
REMARK  103  A    between atoms: _266  and  _267
REMARK  104  A    between atoms: _270  and  _272
REMARK  105  A    between atoms: _272  and  _273
REMARK  106  A    between atoms: _272  and  _275
REMARK  107  A    between atoms: _278  and  _280
REMARK  108  A    between atoms: _280  and  _281
REMARK  109  A    between atoms: _280  and  _283
REMARK  110  A    between atoms: _283  and  _284
REMARK  111  A    between atoms: _287  and  _289
REMARK  112  A    between atoms: _289  and  _290
REMARK  113  A    between atoms: _289  and  _292
REMARK  114  A    between atoms: _292  and  _293
REMARK  115  A    between atoms: _293  and  _294
REMARK  116  A    between atoms: _297  and  _299
REMARK  117  A    between atoms: _299  and  _300
REMARK  118  A    between atoms: _303  and  _305
REMARK  119  A    between atoms: _305  and  _306
REMARK  120  A    between atoms: _305  and  _308
REMARK  121  A    between atoms: _308  and  _309
REMARK  122  A    between atoms: _312  and  _314
REMARK  123  A    between atoms: _314  and  _315
REMARK  124  A    between atoms: _314  and  _317
REMARK  125  A    between atoms: _317  and  _318
REMARK  126  A    between atoms: _318  and  _319
REMARK  127  A    between atoms: _322  and  _324
REMARK  128  A    between atoms: _324  and  _325
REMARK  129  A    between atoms: _324  and  _327
REMARK  130  A    between atoms: _327  and  _328
REMARK  131  A    between atoms: _333  and  _335
REMARK  132  A    between atoms: _335  and  _336
REMARK  133  A    between atoms: _338  and  _340
REMARK  134  A    between atoms: _340  and  _341
REMARK  135  A    between atoms: _340  and  _343
REMARK  136  A    between atoms: _346  and  _348
REMARK  137  A    between atoms: _348  and  _349
REMARK  138  A    between atoms: _352  and  _354
REMARK  139  A    between atoms: _354  and  _355
REMARK  140  A    between atoms: _354  and  _357
REMARK  141  A    between atoms: _357  and  _358
REMARK  142  A    between atoms: _363  and  _365
REMARK  143  A    between atoms: _365  and  _366
REMARK  144  A    between atoms: _365  and  _368
REMARK  145  A    between atoms: _368  and  _369
REMARK  146  A    between atoms: _369  and  _370
REMARK  147  A    between atoms: _370  and  _371
REMARK  148  A    between atoms: _371  and  _372
REMARK  149  A    between atoms: _376  and  _378
REMARK  150  A    between atoms: _378  and  _379
REMARK  151  A    between atoms: _378  and  _381
REMARK  152  A    between atoms: _381  and  _382
REMARK  153  A    between atoms: _385  and  _387
REMARK  154  A    between atoms: _387  and  _388
REMARK  155  A    between atoms: _387  and  _390
REMARK  156  A    between atoms: _390  and  _391
REMARK  157  A    between atoms: _396  and  _398
REMARK  158  A    between atoms: _398  and  _399
REMARK  159  A    between atoms: _401  and  _403
REMARK  160  A    between atoms: _403  and  _404
REMARK  161  A    between atoms: _403  and  _406
REMARK  162  A    between atoms: _406  and  _407
REMARK  163  A    between atoms: _407  and  _408
REMARK  164  A    between atoms: _408  and  _409
REMARK  165  A    between atoms: _409  and  _410
REMARK  166  A    between atoms: _414  and  _416
REMARK  167  A    between atoms: _416  and  _417
REMARK  168  A    between atoms: _416  and  _419
REMARK  169  A    between atoms: _419  and  _420
REMARK  170  A    between atoms: _420  and  _421
REMARK  171  A    between atoms: _421  and  _422
REMARK  172  A    between atoms: _431  and  _433
REMARK  173  A    between atoms: _433  and  _434
REMARK  174  A    between atoms: _433  and  _436
REMARK  175  A    between atoms: _436  and  _437
REMARK  176  A    between atoms: _442  and  _444
REMARK  177  A    between atoms: _444  and  _445
REMARK  178  A    between atoms: _444  and  _447
REMARK  179  A    between atoms: _447  and  _448
REMARK  180  A    between atoms: _453  and  _454
REMARK  181  A    between atoms: _456  and  _458
REMARK  182  A    between atoms: _458  and  _459
REMARK  183  A    between atoms: _458  and  _461
REMARK  184  A    between atoms: _461  and  _462
REMARK  185  A    between atoms: _462  and  _463
REMARK  186  A    between atoms: _463  and  _464
REMARK  187  A    between atoms: _464  and  _465
REMARK  188  A    between atoms: _469  and  _471
REMARK  189  A    between atoms: _471  and  _472
REMARK  190  A    between atoms: _471  and  _474
REMARK  191  A    between atoms: _474  and  _475
REMARK  192  A    between atoms: _477  and  _479
REMARK  193  A    between atoms: _479  and  _480
REMARK  194  A    between atoms: _479  and  _482
REMARK  195  A    between atoms: _482  and  _483
REMARK  196  A    between atoms: _486  and  _488
REMARK  197  A    between atoms: _488  and  _489
REMARK  198  A    between atoms: _488  and  _491
REMARK  199  A    between atoms: _491  and  _492
REMARK  200  A    between atoms: _492  and  _493
REMARK  201  A    between atoms: _496  and  _498
REMARK  202  A    between atoms: _498  and  _499
REMARK  203  A    between atoms: _502  and  _504
REMARK  204  A    between atoms: _504  and  _505
REMARK  205  A    between atoms: _504  and  _507
REMARK  206  A    between atoms: _507  and  _508
REMARK  207  A    between atoms: _510  and  _512
REMARK  208  A    between atoms: _512  and  _513
REMARK  209  A    between atoms: _515  and  _517
REMARK  210  A    between atoms: _517  and  _518
REMARK  211  A    between atoms: _517  and  _520
REMARK  212  A    between atoms: _520  and  _521
REMARK  213  A    between atoms: _524  and  _526
REMARK  214  A    between atoms: _526  and  _527
REMARK  215  A    between atoms: _529  and  _531
REMARK  216  A    between atoms: _531  and  _532
REMARK  217  A    between atoms: _531  and  _534
REMARK  218  A    between atoms: _534  and  _535
REMARK  219  A    between atoms: _540  and  _542
REMARK  220  A    between atoms: _542  and  _543
REMARK  221  A    between atoms: _542  and  _545
REMARK  222  A    between atoms: _545  and  _546
REMARK  223  A    between atoms: _546  and  _547
REMARK  224  A    between atoms: _554  and  _555
REMARK  225  A    between atoms: _555  and  _571
REMARK  226  A    between atoms: _556  and  _558
REMARK  227  A    between atoms: _558  and  _559
REMARK  228  A    between atoms: _559  and  _560
REMARK  229  A    between atoms: _564  and  _566
REMARK  230  A    between atoms: _566  and  _567
REMARK  231  A    between atoms: _566  and  _574
REMARK  232  A    between atoms: _567  and  _568
REMARK  233  A    between atoms: _568  and  _569
REMARK  234  A    between atoms: _569  and  _570
REMARK  235  A    between atoms: _570  and  _571
REMARK  236  A    between atoms: _576  and  _578
REMARK  237  A    between atoms: _578  and  _579
REMARK  238  A    between atoms: _578  and  _581
REMARK  239  A    between atoms: _581  and  _582
REMARK  240  A    between atoms: _585  and  _587
REMARK  241  A    between atoms: _587  and  _588
REMARK  242  A    between atoms: _590  and  _592
REMARK  243  A    between atoms: _592  and  _593
REMARK  244  A    between atoms: _596  and  _598
REMARK  245  A    between atoms: _598  and  _599
REMARK  246  A    between atoms: _598  and  _601
REMARK  247  A    between atoms: _601  and  _602
REMARK  248  A    between atoms: _607  and  _608
REMARK                            x       y       z     vdW  Elec       q    Type
REMARK                         _______ _______ _______ _____ _____    ______ ____
ROOT
ATOM      1  CA  GLU A   1      31.303  20.513  38.552  0.00  0.00    +0.134 C 
ENDROOT
BRANCH   1   2
ATOM      2  N   GLU A   1      32.624  20.044  38.936  0.00  0.00    -0.239 NA
ATOM      3  H   GLU A   1      33.048  19.251  38.414  0.00  0.00    +0.142 HD
ENDBRANCH   1   2
BRANCH   1   4
ATOM      4  C   GLU A   1      30.359  19.363  38.236  0.00  0.00    +0.224 C 
ATOM      5  O   GLU A   1      30.725  18.423  37.530  0.00  0.00    -0.287 OA
ENDBRANCH   1   4
BRANCH   1   6
ATOM      6  CB  GLU A   1      31.399  21.456  37.350  0.00  0.00    +0.037 C 
BRANCH   6   7
ATOM      7  CG  GLU A   1      32.216  22.712  37.619  0.00  0.00    +0.116 C 
BRANCH   7   8
ATOM      8  CD  GLU A   1      32.160  23.709  36.490  0.00  0.00    +0.365 C 
ATOM      9  OE2 GLU A   1      33.108  24.506  36.372  0.00  0.00    -0.246 OA
ATOM     10  OE1 GLU A   1      31.175  23.707  35.722  0.00  0.00    -0.246 OA
ENDBRANCH   7   8
ENDBRANCH   6   7
ENDBRANCH   1   6
TORSDOF 5
REMARK  Name = ../refined-set-2016/3g2i/3g2i_pocket.pdb
REMARK  248 active torsions:
REMARK  status: ('A' for Active; 'I' for Inactive)
REMARK    1  A    between atoms: _1  and  _3
REMARK    2  A    between atoms: _3  and  _4
REMARK    3  A    between atoms: _3  and  _6
REMARK    4  A    between atoms: _6  and  _7
REMARK    5  A    between atoms: _12  and  _13
REMARK    6  A    between atoms: _15  and  _17
REMARK    7  A    between atoms: _17  and  _18
REMARK    8  A    between atoms: _17  and  _20
REMARK    9  A    between atoms: _20  and  _21
REMARK   10  A    between atoms: _21  and  _22
REMARK   11  A    between atoms: _25  and  _27
REMARK   12  A    between atoms: _27  and  _28
REMARK   13  A    between atoms: _27  and  _30
REMARK   14  A    between atoms: _30  and  _31
REMARK   15  A    between atoms: _36  and  _38
REMARK   16  A    between atoms: _38  and  _39
REMARK   17  A    between atoms: _41  and  _43
REMARK   18  A    between atoms: _43  and  _44
REMARK   19  A    between atoms: _46  and  _48
REMARK   20  A    between atoms: _48  and  _49
REMARK   21  A    between atoms: _48  and  _51
REMARK   22  A    between atoms: _51  and  _52
REMARK   23  A    between atoms: _55  and  _57
REMARK   24  A    between atoms: _57  and  _58
REMARK   25  A    between atoms: _60  and  _62
REMARK   26  A    between atoms: _62  and  _63
REMARK   27  A    between atoms: _62  and  _65
REMARK   28  A    between atoms: _65  and  _66
REMARK   29  A    between atoms: _66  and  _67
REMARK   30  A    between atoms: _67  and  _68
REMARK   31  A    between atoms: _77  and  _79
REMARK   32  A    between atoms: _79  and  _80
REMARK   33  A    between atoms: _79  and  _82
REMARK   34  A    between atoms: _82  and  _83
REMARK   35  A    between atoms: _86  and  _88
REMARK   36  A    between atoms: _88  and  _89
REMARK   37  A    between atoms: _92  and  _94
REMARK   38  A    between atoms: _94  and  _95
REMARK   39  A    between atoms: _94  and  _97
REMARK   40  A    between atoms: _97  and  _98
REMARK   41  A    between atoms: _104  and  _106
REMARK   42  A    between atoms: _106  and  _107
REMARK   43  A    between atoms: _106  and  _109
REMARK   44  A    between atoms: _109  and  _110
REMARK   45  A    between atoms: _115  and  _117
REMARK   46  A    between atoms: _117  and  _118
REMARK   47  A    between atoms: _117  and  _120
REMARK   48  A    between atoms: _120  and  _121
REMARK   49  A    between atoms: _124  and  _126
REMARK   50  A    between atoms: _126  and  _127
REMARK   51  A    between atoms: _126  and  _129
REMARK   52  A    between atoms: _129  and  _130
REMARK   53  A    between atoms: _135  and  _137
REMARK   54  A    between atoms: _137  and  _138
REMARK   55  A    between atoms: _137  and  _140
REMARK   56  A    between atoms: _140  and  _141
REMARK   57  A    between atoms: _147  and  _149
REMARK   58  A    between atoms: _149  and  _150
REMARK   59  A    between atoms: _149  and  _152
REMARK   60  A    between atoms: _152  and  _153
REMARK   61  A    between atoms: _159  and  _161
REMARK   62  A    between atoms: _161  and  _162
REMARK   63  A    between atoms: _161  and  _164
REMARK   64  A    between atoms: _164  and  _165
REMARK   65  A    between atoms: _165  and  _166
REMARK   66  A    between atoms: _166  and  _167
REMARK   67  A    between atoms: _176  and  _178
REMARK   68  A    between atoms: _178  and  _179
REMARK   69  A    between atoms: _178  and  _181
REMARK   70  A    between atoms: _181  and  _182
REMARK   71  A    between atoms: _187  and  _189
REMARK   72  A    between atoms: _189  and  _190
REMARK   73  A    between atoms: _189  and  _192
REMARK   74  A    between atoms: _192  and  _193
REMARK   75  A    between atoms: _196  and  _198
REMARK   76  A    between atoms: _198  and  _199
REMARK   77  A    between atoms: _198  and  _201
REMARK   78  A    between atoms: _201  and  _202
REMARK   79  A    between atoms: _205  and  _207
REMARK   80  A    between atoms: _207  and  _208
REMARK   81  A    between atoms: _207  and  _210
REMARK   82  A    between atoms: _210  and  _211
REMARK   83  A    between atoms: _216  and  _218
REMARK   84  A    between atoms: _218  and  _219
REMARK   85  A    between atoms: _218  and  _221
REMARK   86  A    between atoms: _221  and  _222
REMARK   87  A    between atoms: _227  and  _228
REMARK   88  A    between atoms: _230  and  _232
REMARK   89  A    between atoms: _232  and  _233
REMARK   90  A    between atoms: _232  and  _235
REMARK   91  A    between atoms: _235  and  _236
REMARK   92  A    between atoms: _239  and  _241
REMARK   93  A    between atoms: _241  and  _242
REMARK   94  A    between atoms: _241  and  _244
REMARK   95  A    between atoms: _244  and  _245
REMARK   96  A    between atoms: _250  and  _252
REMARK   97  A    between atoms: _252  and  _253
REMARK   98  A    between atoms: _252  and  _255
REMARK   99  A    between atoms: _255  and  _256
REMARK  100  A    between atoms: _261  and  _263
REMARK  101  A    between atoms: _263  and  _264
REMARK  102  A    between atoms: _263  and  _266
REMARK  103  A    between atoms: _266  and  _267
REMARK  104  A    between atoms: _270  and  _272
REMARK  105  A    between atoms: _272  and  _273
REMARK  106  A    between atoms: _272  and  _275
REMARK  107  A    between atoms: _278  and  _280
REMARK  108  A    between atoms: _280  and  _281
REMARK  109  A    between atoms: _280  and  _283
REMARK  110  A    between atoms: _283  and  _284
REMARK  111  A    between atoms: _287  and  _289
REMARK  112  A    between atoms: _289  and  _290
REMARK  113  A    between atoms: _289  and  _292
REMARK  114  A    between atoms: _292  and  _293
REMARK  115  A    between atoms: _293  and  _294
REMARK  116  A    between atoms: _297  and  _299
REMARK  117  A    between atoms: _299  and  _300
REMARK  118  A    between atoms: _303  and  _305
REMARK  119  A    between atoms: _305  and  _306
REMARK  120  A    between atoms: _305  and  _308
REMARK  121  A    between atoms: _308  and  _309
REMARK  122  A    between atoms: _312  and  _314
REMARK  123  A    between atoms: _314  and  _315
REMARK  124  A    between atoms: _314  and  _317
REMARK  125  A    between atoms: _317  and  _318
REMARK  126  A    between atoms: _318  and  _319
REMARK  127  A    between atoms: _322  and  _324
REMARK  128  A    between atoms: _324  and  _325
REMARK  129  A    between atoms: _324  and  _327
REMARK  130  A    between atoms: _327  and  _328
REMARK  131  A    between atoms: _333  and  _335
REMARK  132  A    between atoms: _335  and  _336
REMARK  133  A    between atoms: _338  and  _340
REMARK  134  A    between atoms: _340  and  _341
REMARK  135  A    between atoms: _340  and  _343
REMARK  136  A    between atoms: _346  and  _348
REMARK  137  A    between atoms: _348  and  _349
REMARK  138  A    between atoms: _352  and  _354
REMARK  139  A    between atoms: _354  and  _355
REMARK  140  A    between atoms: _354  and  _357
REMARK  141  A    between atoms: _357  and  _358
REMARK  142  A    between atoms: _363  and  _365
REMARK  143  A    between atoms: _365  and  _366
REMARK  144  A    between atoms: _365  and  _368
REMARK  145  A    between atoms: _368  and  _369
REMARK  146  A    between atoms: _369  and  _370
REMARK  147  A    between atoms: _370  and  _371
REMARK  148  A    between atoms: _371  and  _372
REMARK  149  A    between atoms: _376  and  _378
REMARK  150  A    between atoms: _378  and  _379
REMARK  151  A    between atoms: _378  and  _381
REMARK  152  A    between atoms: _381  and  _382
REMARK  153  A    between atoms: _385  and  _387
REMARK  154  A    between atoms: _387  and  _388
REMARK  155  A    between atoms: _387  and  _390
REMARK  156  A    between atoms: _390  and  _391
REMARK  157  A    between atoms: _396  and  _398
REMARK  158  A    between atoms: _398  and  _399
REMARK  159  A    between atoms: _401  and  _403
REMARK  160  A    between atoms: _403  and  _404
REMARK  161  A    between atoms: _403  and  _406
REMARK  162  A    between atoms: _406  and  _407
REMARK  163  A    between atoms: _407  and  _408
REMARK  164  A    between atoms: _408  and  _409
REMARK  165  A    between atoms: _409  and  _410
REMARK  166  A    between atoms: _414  and  _416
REMARK  167  A    between atoms: _416  and  _417
REMARK  168  A    between atoms: _416  and  _419
REMARK  169  A    between atoms: _419  and  _420
REMARK  170  A    between atoms: _420  and  _421
REMARK  171  A    between atoms: _421  and  _422
REMARK  172  A    between atoms: _431  and  _433
REMARK  173  A    between atoms: _433  and  _434
REMARK  174  A    between atoms: _433  and  _436
REMARK  175  A    between atoms: _436  and  _437
REMARK  176  A    between atoms: _442  and  _444
REMARK  177  A    between atoms: _444  and  _445
REMARK  178  A    between atoms: _444  and  _447
REMARK  179  A    between atoms: _447  and  _448
REMARK  180  A    between atoms: _453  and  _454
REMARK  181  A    between atoms: _456  and  _458
REMARK  182  A    between atoms: _458  and  _459
REMARK  183  A    between atoms: _458  and  _461
REMARK  184  A    between atoms: _461  and  _462
REMARK  185  A    between atoms: _462  and  _463
REMARK  186  A    between atoms: _463  and  _464
REMARK  187  A    between atoms: _464  and  _465
REMARK  188  A    between atoms: _469  and  _471
REMARK  189  A    between atoms: _471  and  _472
REMARK  190  A    between atoms: _471  and  _474
REMARK  191  A    between atoms: _474  and  _475
REMARK  192  A    between atoms: _477  and  _479
REMARK  193  A    between atoms: _479  and  _480
REMARK  194  A    between atoms: _479  and  _482
REMARK  195  A    between atoms: _482  and  _483
REMARK  196  A    between atoms: _486  and  _488
REMARK  197  A    between atoms: _488  and  _489
REMARK  198  A    between atoms: _488  and  _491
REMARK  199  A    between atoms: _491  and  _492
REMARK  200  A    between atoms: _492  and  _493
REMARK  201  A    between atoms: _496  and  _498
REMARK  202  A    between atoms: _498  and  _499
REMARK  203  A    between atoms: _502  and  _504
REMARK  204  A    between atoms: _504  and  _505
REMARK  205  A    between atoms: _504  and  _507
REMARK  206  A    between atoms: _507  and  _508
REMARK  207  A    between atoms: _510  and  _512
REMARK  208  A    between atoms: _512  and  _513
REMARK  209  A    between atoms: _515  and  _517
REMARK  210  A    between atoms: _517  and  _518
REMARK  211  A    between atoms: _517  and  _520
REMARK  212  A    between atoms: _520  and  _521
REMARK  213  A    between atoms: _524  and  _526
REMARK  214  A    between atoms: _526  and  _527
REMARK  215  A    between atoms: _529  and  _531
REMARK  216  A    between atoms: _531  and  _532
REMARK  217  A    between atoms: _531  and  _534
REMARK  218  A    between atoms: _534  and  _535
REMARK  219  A    between atoms: _540  and  _542
REMARK  220  A    between atoms: _542  and  _543
REMARK  221  A    between atoms: _542  and  _545
REMARK  222  A    between atoms: _545  and  _546
REMARK  223  A    between atoms: _546  and  _547
REMARK  224  A    between atoms: _554  and  _555
REMARK  225  A    between atoms: _555  and  _571
REMARK  226  A    between atoms: _556  and  _558
REMARK  227  A    between atoms: _558  and  _559
REMARK  228  A    between atoms: _559  and  _560
REMARK  229  A    between atoms: _564  and  _566
REMARK  230  A    between atoms: _566  and  _567
REMARK  231  A    between atoms: _566  and  _574
REMARK  232  A    between atoms: _567  and  _568
REMARK  233  A    between atoms: _568  and  _569
REMARK  234  A    between atoms: _569  and  _570
REMARK  235  A    between atoms: _570  and  _571
REMARK  236  A    between atoms: _576  and  _578
REMARK  237  A    between atoms: _578  and  _579
REMARK  238  A    between atoms: _578  and  _581
REMARK  239  A    between atoms: _581  and  _582
REMARK  240  A    between atoms: _585  and  _587
REMARK  241  A    between atoms: _587  and  _588
REMARK  242  A    between atoms: _590  and  _592
REMARK  243  A    between atoms: _592  and  _593
REMARK  244  A    between atoms: _596  and  _598
REMARK  245  A    between atoms: _598  and  _599
REMARK  246  A    between atoms: _598  and  _601
REMARK  247  A    between atoms: _601  and  _602
REMARK  248  A    between atoms: _607  and  _608
REMARK                            x       y       z     vdW  Elec       q    Type
REMARK                         _______ _______ _______ _____ _____    ______ ____
ROOT
ATOM      1  C   GLY A   5      28.058  19.615  34.130  0.00  0.00    +0.243 C 
ATOM      2  O   GLY A   5      27.715  18.642  34.785  0.00  0.00    -0.273 OA
ATOM      3  N   ARG A   6      27.393  20.022  33.054  0.00  0.00    -0.297 N 
ATOM      4  H   ARG A   6      27.719  20.864  32.538  0.00  0.00    +0.150 HD
ENDROOT
BRANCH   3   5
ATOM      5  CA  ARG A   6      26.203  19.298  32.583  0.00  0.00    +0.149 C 
BRANCH   5   6
ATOM      6  C   ARG A   6      26.589  17.953  31.969  0.00  0.00    +0.241 C 
ATOM      7  O   ARG A   6      25.859  16.980  32.122  0.00  0.00    -0.273 OA
ATOM      8  N   LEU A   7      27.748  17.889  31.317  0.00  0.00    -0.297 N 
ATOM      9  H   LEU A   7      28.304  18.757  31.181  0.00  0.00    +0.150 HD
BRANCH   8  10
ATOM     10  CA  LEU A   7      28.254  16.631  30.790  0.00  0.00    +0.149 C 
BRANCH  10  11
ATOM     11  C   LEU A   7      28.438  15.616  31.909  0.00  0.00    +0.241 C 
ATOM     12  N   ALA A   8      29.020  16.064  33.022  0.00  0.00    -0.298 N 
ATOM     13  H   ALA A   8      29.365  17.045  33.052  0.00  0.00    +0.150 HD
ATOM     14  O   LEU A   7      28.054  14.456  31.768  0.00  0.00    -0.273 OA
BRANCH  12  15
ATOM     15  CA  ALA A   8      29.185  15.222  34.192  0.00  0.00    +0.137 C 
ATOM     16  CB  ALA A   8      29.895  15.982  35.302  0.00  0.00    +0.030 C 
BRANCH  15  17
ATOM     17  C   ALA A   8      27.829  14.694  34.670  0.00  0.00    +0.227 C 
ATOM     18  O   ALA A   8      27.712  13.524  35.003  0.00  0.00    -0.286 OA
ENDBRANCH  15  17
ENDBRANCH  12  15
ENDBRANCH  10  11
BRANCH  10  19
ATOM     19  CB  LEU A   7      29.569  16.821  30.024  0.00  0.00    +0.029 C 
BRANCH  19  20
ATOM     20  CG  LEU A   7      30.057  15.569  29.275  0.00  0.00    +0.002 C 
ATOM     21  CD2 LEU A   7      31.560  15.623  29.025  0.00  0.00    +0.000 C 
ATOM     22  CD1 LEU A   7      29.295  15.380  27.973  0.00  0.00    +0.000 C 
ENDBRANCH  19  20
ENDBRANCH  10  19
ENDBRANCH   8  10
ENDBRANCH   5   6
BRANCH   5  23
ATOM     23  CB  ARG A   6      25.368  20.185  31.642  0.00  0.00    +0.033 C 
BRANCH  23  24
ATOM     24  CG  ARG A   6      24.111  19.593  30.941  0.00  0.00    +0.045 C 
BRANCH  24  25
ATOM     25  CD  ARG A   6      23.515  18.288  31.491  0.00  0.00    +0.174 C 
BRANCH  25  26
ATOM     26  NE  ARG A   6      22.736  18.433  32.700  0.00  0.00    -0.265 N 
ATOM     27  CZ  ARG A   6      22.015  17.461  33.266  0.00  0.00    +0.342 C 
ATOM     28  NH2 ARG A   6      21.357  17.719  34.375  0.00  0.00    -0.292 N 
ATOM     29 HH21 ARG A   6      20.791  16.974  34.829  0.00  0.00    +0.255 HD
ATOM     30 HH22 ARG A   6      21.403  18.668  34.798  0.00  0.00    +0.255 HD
ATOM     31  NH1 ARG A   6      21.952  16.239  32.750  0.00  0.00    -0.292 N 
ATOM     32 HH11 ARG A   6      21.381  15.506  33.217  0.00  0.00    +0.255 HD
ATOM     33 HH12 ARG A   6      22.474  16.015  31.879  0.00  0.00    +0.255 HD
ATOM     34  HE  ARG A   6      22.737  19.364  33.164  0.00  0.00    +0.259 HD
ENDBRANCH  25  26
ENDBRANCH  24  25
ENDBRANCH  23  24
ENDBRANCH   5  23
ENDBRANCH   3   5
BRANCH   1  35
ATOM     35  CA  GLY A   5      29.281  20.428  34.531  0.00  0.00    +0.176 C 
BRANCH  35  37
ATOM     36  C   LEU A   4      30.651  20.037  32.561  0.00  0.00    +0.241 C 
ATOM     37  N   GLY A   5      30.035  20.894  33.374  0.00  0.00    -0.295 N 
ATOM     38  H   GLY A   5      30.093  21.914  33.180  0.00  0.00    +0.150 HD
ATOM     39  O   LEU A   4      30.674  18.827  32.758  0.00  0.00    -0.273 OA
BRANCH  36  40
ATOM     40  CA  LEU A   4      31.353  20.630  31.341  0.00  0.00    +0.149 C 
BRANCH  40  42
ATOM     41  C   GLY A   3      29.392  21.182  30.018  0.00  0.00    +0.243 C 
ATOM     42  N   LEU A   4      30.487  21.585  30.659  0.00  0.00    -0.297 N 
ATOM     43  H   LEU A   4      30.729  22.596  30.674  0.00  0.00    +0.150 HD
ATOM     44  O   GLY A   3      29.035  20.004  29.979  0.00  0.00    -0.273 OA
BRANCH  41  45
ATOM     45  CA  GLY A   3      28.589  22.248  29.311  0.00  0.00    +0.176 C 
BRANCH  45  48
ATOM     46  C   GLY A   2      27.883  23.640  31.201  0.00  0.00    +0.243 C 
ATOM     47  O   GLY A   2      27.560  22.692  31.912  0.00  0.00    -0.273 OA
ATOM     48  N   GLY A   3      28.478  23.521  30.018  0.00  0.00    -0.295 N 
ATOM     49  H   GLY A   3      28.882  24.372  29.577  0.00  0.00    +0.150 HD
BRANCH  46  50
ATOM     50  CA  GLY A   2      27.639  25.045  31.661  0.00  0.00    +0.176 C 
BRANCH  50  53
ATOM     51  C   ASN A   1      28.146  26.420  33.579  0.00  0.00    +0.239 C 
ATOM     52  O   ASN A   1      27.484  27.350  33.135  0.00  0.00    -0.274 OA
ATOM     53  N   GLY A   2      28.248  25.252  32.964  0.00  0.00    -0.296 N 
ATOM     54  H   GLY A   2      28.769  24.475  33.418  0.00  0.00    +0.150 HD
BRANCH  51  55
ATOM     55  CA  ASN A   1      28.922  26.560  34.868  0.00  0.00    +0.154 C 
BRANCH  55  56
ATOM     56  N   ASN A   1      28.970  25.331  35.649  0.00  0.00    -0.238 NA
ATOM     57  H   ASN A   1      29.705  24.627  35.437  0.00  0.00    +0.142 HD
ENDBRANCH  55  56
BRANCH  55  58
ATOM     58  CB  ASN A   1      30.341  27.001  34.545  0.00  0.00    +0.111 C 
BRANCH  58  59
ATOM     59  CG  ASN A   1      30.954  27.770  35.664  0.00  0.00    +0.221 C 
ATOM     60  ND2 ASN A   1      31.789  27.111  36.461  0.00  0.00    -0.329 N 
ATOM     61 HD21 ASN A   1      32.236  27.599  37.263  0.00  0.00    +0.145 HD
ATOM     62 HD22 ASN A   1      31.995  26.107  36.282  0.00  0.00    +0.145 HD
ATOM     63  OD1 ASN A   1      30.673  28.951  35.824  0.00  0.00    -0.275 OA
ENDBRANCH  58  59
ENDBRANCH  55  58
ENDBRANCH  51  55
ENDBRANCH  50  53
ENDBRANCH  46  50
ENDBRANCH  45  48
ENDBRANCH  41  45
ENDBRANCH  40  42
BRANCH  40  64
ATOM     64  CB  LEU A   4      32.694  21.270  31.719  0.00  0.00    +0.029 C 
BRANCH  64  65
ATOM     65  CG  LEU A   4      33.660  20.481  32.612  0.00  0.00    +0.002 C 
ATOM     66  CD2 LEU A   4      33.585  21.000  34.040  0.00  0.00    +0.000 C 
ATOM     67  CD1 LEU A   4      35.085  20.577  32.104  0.00  0.00    +0.000 C 
ENDBRANCH  64  65
ENDBRANCH  40  64
ENDBRANCH  36  40
ENDBRANCH  35  37
ENDBRANCH   1  35
TORSDOF 26
REMARK  Name = ../refined-set-2016/3g2i/3g2i_pocket.pdb
REMARK  248 active torsions:
REMARK  status: ('A' for Active; 'I' for Inactive)
REMARK    1  A    between atoms: _1  and  _3
REMARK    2  A    between atoms: _3  and  _4
REMARK    3  A    between atoms: _3  and  _6
REMARK    4  A    between atoms: _6  and  _7
REMARK    5  A    between atoms: _12  and  _13
REMARK    6  A    between atoms: _15  and  _17
REMARK    7  A    between atoms: _17  and  _18
REMARK    8  A    between atoms: _17  and  _20
REMARK    9  A    between atoms: _20  and  _21
REMARK   10  A    between atoms: _21  and  _22
REMARK   11  A    between atoms: _25  and  _27
REMARK   12  A    between atoms: _27  and  _28
REMARK   13  A    between atoms: _27  and  _30
REMARK   14  A    between atoms: _30  and  _31
REMARK   15  A    between atoms: _36  and  _38
REMARK   16  A    between atoms: _38  and  _39
REMARK   17  A    between atoms: _41  and  _43
REMARK   18  A    between atoms: _43  and  _44
REMARK   19  A    between atoms: _46  and  _48
REMARK   20  A    between atoms: _48  and  _49
REMARK   21  A    between atoms: _48  and  _51
REMARK   22  A    between atoms: _51  and  _52
REMARK   23  A    between atoms: _55  and  _57
REMARK   24  A    between atoms: _57  and  _58
REMARK   25  A    between atoms: _60  and  _62
REMARK   26  A    between atoms: _62  and  _63
REMARK   27  A    between atoms: _62  and  _65
REMARK   28  A    between atoms: _65  and  _66
REMARK   29  A    between atoms: _66  and  _67
REMARK   30  A    between atoms: _67  and  _68
REMARK   31  A    between atoms: _77  and  _79
REMARK   32  A    between atoms: _79  and  _80
REMARK   33  A    between atoms: _79  and  _82
REMARK   34  A    between atoms: _82  and  _83
REMARK   35  A    between atoms: _86  and  _88
REMARK   36  A    between atoms: _88  and  _89
REMARK   37  A    between atoms: _92  and  _94
REMARK   38  A    between atoms: _94  and  _95
REMARK   39  A    between atoms: _94  and  _97
REMARK   40  A    between atoms: _97  and  _98
REMARK   41  A    between atoms: _104  and  _106
REMARK   42  A    between atoms: _106  and  _107
REMARK   43  A    between atoms: _106  and  _109
REMARK   44  A    between atoms: _109  and  _110
REMARK   45  A    between atoms: _115  and  _117
REMARK   46  A    between atoms: _117  and  _118
REMARK   47  A    between atoms: _117  and  _120
REMARK   48  A    between atoms: _120  and  _121
REMARK   49  A    between atoms: _124  and  _126
REMARK   50  A    between atoms: _126  and  _127
REMARK   51  A    between atoms: _126  and  _129
REMARK   52  A    between atoms: _129  and  _130
REMARK   53  A    between atoms: _135  and  _137
REMARK   54  A    between atoms: _137  and  _138
REMARK   55  A    between atoms: _137  and  _140
REMARK   56  A    between atoms: _140  and  _141
REMARK   57  A    between atoms: _147  and  _149
REMARK   58  A    between atoms: _149  and  _150
REMARK   59  A    between atoms: _149  and  _152
REMARK   60  A    between atoms: _152  and  _153
REMARK   61  A    between atoms: _159  and  _161
REMARK   62  A    between atoms: _161  and  _162
REMARK   63  A    between atoms: _161  and  _164
REMARK   64  A    between atoms: _164  and  _165
REMARK   65  A    between atoms: _165  and  _166
REMARK   66  A    between atoms: _166  and  _167
REMARK   67  A    between atoms: _176  and  _178
REMARK   68  A    between atoms: _178  and  _179
REMARK   69  A    between atoms: _178  and  _181
REMARK   70  A    between atoms: _181  and  _182
REMARK   71  A    between atoms: _187  and  _189
REMARK   72  A    between atoms: _189  and  _190
REMARK   73  A    between atoms: _189  and  _192
REMARK   74  A    between atoms: _192  and  _193
REMARK   75  A    between atoms: _196  and  _198
REMARK   76  A    between atoms: _198  and  _199
REMARK   77  A    between atoms: _198  and  _201
REMARK   78  A    between atoms: _201  and  _202
REMARK   79  A    between atoms: _205  and  _207
REMARK   80  A    between atoms: _207  and  _208
REMARK   81  A    between atoms: _207  and  _210
REMARK   82  A    between atoms: _210  and  _211
REMARK   83  A    between atoms: _216  and  _218
REMARK   84  A    between atoms: _218  and  _219
REMARK   85  A    between atoms: _218  and  _221
REMARK   86  A    between atoms: _221  and  _222
REMARK   87  A    between atoms: _227  and  _228
REMARK   88  A    between atoms: _230  and  _232
REMARK   89  A    between atoms: _232  and  _233
REMARK   90  A    between atoms: _232  and  _235
REMARK   91  A    between atoms: _235  and  _236
REMARK   92  A    between atoms: _239  and  _241
REMARK   93  A    between atoms: _241  and  _242
REMARK   94  A    between atoms: _241  and  _244
REMARK   95  A    between atoms: _244  and  _245
REMARK   96  A    between atoms: _250  and  _252
REMARK   97  A    between atoms: _252  and  _253
REMARK   98  A    between atoms: _252  and  _255
REMARK   99  A    between atoms: _255  and  _256
REMARK  100  A    between atoms: _261  and  _263
REMARK  101  A    between atoms: _263  and  _264
REMARK  102  A    between atoms: _263  and  _266
REMARK  103  A    between atoms: _266  and  _267
REMARK  104  A    between atoms: _270  and  _272
REMARK  105  A    between atoms: _272  and  _273
REMARK  106  A    between atoms: _272  and  _275
REMARK  107  A    between atoms: _278  and  _280
REMARK  108  A    between atoms: _280  and  _281
REMARK  109  A    between atoms: _280  and  _283
REMARK  110  A    between atoms: _283  and  _284
REMARK  111  A    between atoms: _287  and  _289
REMARK  112  A    between atoms: _289  and  _290
REMARK  113  A    between atoms: _289  and  _292
REMARK  114  A    between atoms: _292  and  _293
REMARK  115  A    between atoms: _293  and  _294
REMARK  116  A    between atoms: _297  and  _299
REMARK  117  A    between atoms: _299  and  _300
REMARK  118  A    between atoms: _303  and  _305
REMARK  119  A    between atoms: _305  and  _306
REMARK  120  A    between atoms: _305  and  _308
REMARK  121  A    between atoms: _308  and  _309
REMARK  122  A    between atoms: _312  and  _314
REMARK  123  A    between atoms: _314  and  _315
REMARK  124  A    between atoms: _314  and  _317
REMARK  125  A    between atoms: _317  and  _318
REMARK  126  A    between atoms: _318  and  _319
REMARK  127  A    between atoms: _322  and  _324
REMARK  128  A    between atoms: _324  and  _325
REMARK  129  A    between atoms: _324  and  _327
REMARK  130  A    between atoms: _327  and  _328
REMARK  131  A    between atoms: _333  and  _335
REMARK  132  A    between atoms: _335  and  _336
REMARK  133  A    between atoms: _338  and  _340
REMARK  134  A    between atoms: _340  and  _341
REMARK  135  A    between atoms: _340  and  _343
REMARK  136  A    between atoms: _346  and  _348
REMARK  137  A    between atoms: _348  and  _349
REMARK  138  A    between atoms: _352  and  _354
REMARK  139  A    between atoms: _354  and  _355
REMARK  140  A    between atoms: _354  and  _357
REMARK  141  A    between atoms: _357  and  _358
REMARK  142  A    between atoms: _363  and  _365
REMARK  143  A    between atoms: _365  and  _366
REMARK  144  A    between atoms: _365  and  _368
REMARK  145  A    between atoms: _368  and  _369
REMARK  146  A    between atoms: _369  and  _370
REMARK  147  A    between atoms: _370  and  _371
REMARK  148  A    between atoms: _371  and  _372
REMARK  149  A    between atoms: _376  and  _378
REMARK  150  A    between atoms: _378  and  _379
REMARK  151  A    between atoms: _378  and  _381
REMARK  152  A    between atoms: _381  and  _382
REMARK  153  A    between atoms: _385  and  _387
REMARK  154  A    between atoms: _387  and  _388
REMARK  155  A    between atoms: _387  and  _390
REMARK  156  A    between atoms: _390  and  _391
REMARK  157  A    between atoms: _396  and  _398
REMARK  158  A    between atoms: _398  and  _399
REMARK  159  A    between atoms: _401  and  _403
REMARK  160  A    between atoms: _403  and  _404
REMARK  161  A    between atoms: _403  and  _406
REMARK  162  A    between atoms: _406  and  _407
REMARK  163  A    between atoms: _407  and  _408
REMARK  164  A    between atoms: _408  and  _409
REMARK  165  A    between atoms: _409  and  _410
REMARK  166  A    between atoms: _414  and  _416
REMARK  167  A    between atoms: _416  and  _417
REMARK  168  A    between atoms: _416  and  _419
REMARK  169  A    between atoms: _419  and  _420
REMARK  170  A    between atoms: _420  and  _421
REMARK  171  A    between atoms: _421  and  _422
REMARK  172  A    between atoms: _431  and  _433
REMARK  173  A    between atoms: _433  and  _434
REMARK  174  A    between atoms: _433  and  _436
REMARK  175  A    between atoms: _436  and  _437
REMARK  176  A    between atoms: _442  and  _444
REMARK  177  A    between atoms: _444  and  _445
REMARK  178  A    between atoms: _444  and  _447
REMARK  179  A    between atoms: _447  and  _448
REMARK  180  A    between atoms: _453  and  _454
REMARK  181  A    between atoms: _456  and  _458
REMARK  182  A    between atoms: _458  and  _459
REMARK  183  A    between atoms: _458  and  _461
REMARK  184  A    between atoms: _461  and  _462
REMARK  185  A    between atoms: _462  and  _463
REMARK  186  A    between atoms: _463  and  _464
REMARK  187  A    between atoms: _464  and  _465
REMARK  188  A    between atoms: _469  and  _471
REMARK  189  A    between atoms: _471  and  _472
REMARK  190  A    between atoms: _471  and  _474
REMARK  191  A    between atoms: _474  and  _475
REMARK  192  A    between atoms: _477  and  _479
REMARK  193  A    between atoms: _479  and  _480
REMARK  194  A    between atoms: _479  and  _482
REMARK  195  A    between atoms: _482  and  _483
REMARK  196  A    between atoms: _486  and  _488
REMARK  197  A    between atoms: _488  and  _489
REMARK  198  A    between atoms: _488  and  _491
REMARK  199  A    between atoms: _491  and  _492
REMARK  200  A    between atoms: _492  and  _493
REMARK  201  A    between atoms: _496  and  _498
REMARK  202  A    between atoms: _498  and  _499
REMARK  203  A    between atoms: _502  and  _504
REMARK  204  A    between atoms: _504  and  _505
REMARK  205  A    between atoms: _504  and  _507
REMARK  206  A    between atoms: _507  and  _508
REMARK  207  A    between atoms: _510  and  _512
REMARK  208  A    between atoms: _512  and  _513
REMARK  209  A    between atoms: _515  and  _517
REMARK  210  A    between atoms: _517  and  _518
REMARK  211  A    between atoms: _517  and  _520
REMARK  212  A    between atoms: _520  and  _521
REMARK  213  A    between atoms: _524  and  _526
REMARK  214  A    between atoms: _526  and  _527
REMARK  215  A    between atoms: _529  and  _531
REMARK  216  A    between atoms: _531  and  _532
REMARK  217  A    between atoms: _531  and  _534
REMARK  218  A    between atoms: _534  and  _535
REMARK  219  A    between atoms: _540  and  _542
REMARK  220  A    between atoms: _542  and  _543
REMARK  221  A    between atoms: _542  and  _545
REMARK  222  A    between atoms: _545  and  _546
REMARK  223  A    between atoms: _546  and  _547
REMARK  224  A    between atoms: _554  and  _555
REMARK  225  A    between atoms: _555  and  _571
REMARK  226  A    between atoms: _556  and  _558
REMARK  227  A    between atoms: _558  and  _559
REMARK  228  A    between atoms: _559  and  _560
REMARK  229  A    between atoms: _564  and  _566
REMARK  230  A    between atoms: _566  and  _567
REMARK  231  A    between atoms: _566  and  _574
REMARK  232  A    between atoms: _567  and  _568
REMARK  233  A    between atoms: _568  and  _569
REMARK  234  A    between atoms: _569  and  _570
REMARK  235  A    between atoms: _570  and  _571
REMARK  236  A    between atoms: _576  and  _578
REMARK  237  A    between atoms: _578  and  _579
REMARK  238  A    between atoms: _578  and  _581
REMARK  239  A    between atoms: _581  and  _582
REMARK  240  A    between atoms: _585  and  _587
REMARK  241  A    between atoms: _587  and  _588
REMARK  242  A    between atoms: _590  and  _592
REMARK  243  A    between atoms: _592  and  _593
REMARK  244  A    between atoms: _596  and  _598
REMARK  245  A    between atoms: _598  and  _599
REMARK  246  A    between atoms: _598  and  _601
REMARK  247  A    between atoms: _601  and  _602
REMARK  248  A    between atoms: _607  and  _608
REMARK                            x       y       z     vdW  Elec       q    Type
REMARK                         _______ _______ _______ _____ _____    ______ ____
ROOT
ATOM      1  CB  PHE A   1      28.825  11.379  32.481  0.00  0.00    +0.051 C 
ENDROOT
BRANCH   1   2
ATOM      2  CG  PHE A   1      29.493  11.603  31.141  0.00  0.00    -0.020 A 
ATOM      3  CD2 PHE A   1      30.863  11.781  31.066  0.00  0.00    -0.004 A 
ATOM      4  CE2 PHE A   1      31.491  11.985  29.835  0.00  0.00    -0.000 A 
ATOM      5  CZ  PHE A   1      30.742  12.017  28.672  0.00  0.00    -0.000 A 
ATOM      6  CE1 PHE A   1      29.362  11.850  28.732  0.00  0.00    -0.000 A 
ATOM      7  CD1 PHE A   1      28.748  11.650  29.964  0.00  0.00    -0.004 A 
ENDBRANCH   1   2
BRANCH   1   8
ATOM      8  CA  PHE A   1      27.348  10.986  32.380  0.00  0.00    +0.137 C 
BRANCH   8   9
ATOM      9  N   PHE A   1      26.514  12.166  32.206  0.00  0.00    -0.239 NA
ATOM     10  H   PHE A   1      26.956  13.106  32.260  0.00  0.00    +0.142 HD
ENDBRANCH   8   9
BRANCH   8  11
ATOM     11  C   PHE A   1      26.918  10.152  33.586  0.00  0.00    +0.224 C 
ATOM     12  O   PHE A   1      26.860   8.932  33.496  0.00  0.00    -0.287 OA
ENDBRANCH   8  11
ENDBRANCH   1   8
TORSDOF 4
REMARK  Name = ../refined-set-2016/3g2i/3g2i_pocket.pdb
REMARK  248 active torsions:
REMARK  status: ('A' for Active; 'I' for Inactive)
REMARK    1  A    between atoms: _1  and  _3
REMARK    2  A    between atoms: _3  and  _4
REMARK    3  A    between atoms: _3  and  _6
REMARK    4  A    between atoms: _6  and  _7
REMARK    5  A    between atoms: _12  and  _13
REMARK    6  A    between atoms: _15  and  _17
REMARK    7  A    between atoms: _17  and  _18
REMARK    8  A    between atoms: _17  and  _20
REMARK    9  A    between atoms: _20  and  _21
REMARK   10  A    between atoms: _21  and  _22
REMARK   11  A    between atoms: _25  and  _27
REMARK   12  A    between atoms: _27  and  _28
REMARK   13  A    between atoms: _27  and  _30
REMARK   14  A    between atoms: _30  and  _31
REMARK   15  A    between atoms: _36  and  _38
REMARK   16  A    between atoms: _38  and  _39
REMARK   17  A    between atoms: _41  and  _43
REMARK   18  A    between atoms: _43  and  _44
REMARK   19  A    between atoms: _46  and  _48
REMARK   20  A    between atoms: _48  and  _49
REMARK   21  A    between atoms: _48  and  _51
REMARK   22  A    between atoms: _51  and  _52
REMARK   23  A    between atoms: _55  and  _57
REMARK   24  A    between atoms: _57  and  _58
REMARK   25  A    between atoms: _60  and  _62
REMARK   26  A    between atoms: _62  and  _63
REMARK   27  A    between atoms: _62  and  _65
REMARK   28  A    between atoms: _65  and  _66
REMARK   29  A    between atoms: _66  and  _67
REMARK   30  A    between atoms: _67  and  _68
REMARK   31  A    between atoms: _77  and  _79
REMARK   32  A    between atoms: _79  and  _80
REMARK   33  A    between atoms: _79  and  _82
REMARK   34  A    between atoms: _82  and  _83
REMARK   35  A    between atoms: _86  and  _88
REMARK   36  A    between atoms: _88  and  _89
REMARK   37  A    between atoms: _92  and  _94
REMARK   38  A    between atoms: _94  and  _95
REMARK   39  A    between atoms: _94  and  _97
REMARK   40  A    between atoms: _97  and  _98
REMARK   41  A    between atoms: _104  and  _106
REMARK   42  A    between atoms: _106  and  _107
REMARK   43  A    between atoms: _106  and  _109
REMARK   44  A    between atoms: _109  and  _110
REMARK   45  A    between atoms: _115  and  _117
REMARK   46  A    between atoms: _117  and  _118
REMARK   47  A    between atoms: _117  and  _120
REMARK   48  A    between atoms: _120  and  _121
REMARK   49  A    between atoms: _124  and  _126
REMARK   50  A    between atoms: _126  and  _127
REMARK   51  A    between atoms: _126  and  _129
REMARK   52  A    between atoms: _129  and  _130
REMARK   53  A    between atoms: _135  and  _137
REMARK   54  A    between atoms: _137  and  _138
REMARK   55  A    between atoms: _137  and  _140
REMARK   56  A    between atoms: _140  and  _141
REMARK   57  A    between atoms: _147  and  _149
REMARK   58  A    between atoms: _149  and  _150
REMARK   59  A    between atoms: _149  and  _152
REMARK   60  A    between atoms: _152  and  _153
REMARK   61  A    between atoms: _159  and  _161
REMARK   62  A    between atoms: _161  and  _162
REMARK   63  A    between atoms: _161  and  _164
REMARK   64  A    between atoms: _164  and  _165
REMARK   65  A    between atoms: _165  and  _166
REMARK   66  A    between atoms: _166  and  _167
REMARK   67  A    between atoms: _176  and  _178
REMARK   68  A    between atoms: _178  and  _179
REMARK   69  A    between atoms: _178  and  _181
REMARK   70  A    between atoms: _181  and  _182
REMARK   71  A    between atoms: _187  and  _189
REMARK   72  A    between atoms: _189  and  _190
REMARK   73  A    between atoms: _189  and  _192
REMARK   74  A    between atoms: _192  and  _193
REMARK   75  A    between atoms: _196  and  _198
REMARK   76  A    between atoms: _198  and  _199
REMARK   77  A    between atoms: _198  and  _201
REMARK   78  A    between atoms: _201  and  _202
REMARK   79  A    between atoms: _205  and  _207
REMARK   80  A    between atoms: _207  and  _208
REMARK   81  A    between atoms: _207  and  _210
REMARK   82  A    between atoms: _210  and  _211
REMARK   83  A    between atoms: _216  and  _218
REMARK   84  A    between atoms: _218  and  _219
REMARK   85  A    between atoms: _218  and  _221
REMARK   86  A    between atoms: _221  and  _222
REMARK   87  A    between atoms: _227  and  _228
REMARK   88  A    between atoms: _230  and  _232
REMARK   89  A    between atoms: _232  and  _233
REMARK   90  A    between atoms: _232  and  _235
REMARK   91  A    between atoms: _235  and  _236
REMARK   92  A    between atoms: _239  and  _241
REMARK   93  A    between atoms: _241  and  _242
REMARK   94  A    between atoms: _241  and  _244
REMARK   95  A    between atoms: _244  and  _245
REMARK   96  A    between atoms: _250  and  _252
REMARK   97  A    between atoms: _252  and  _253
REMARK   98  A    between atoms: _252  and  _255
REMARK   99  A    between atoms: _255  and  _256
REMARK  100  A    between atoms: _261  and  _263
REMARK  101  A    between atoms: _263  and  _264
REMARK  102  A    between atoms: _263  and  _266
REMARK  103  A    between atoms: _266  and  _267
REMARK  104  A    between atoms: _270  and  _272
REMARK  105  A    between atoms: _272  and  _273
REMARK  106  A    between atoms: _272  and  _275
REMARK  107  A    between atoms: _278  and  _280
REMARK  108  A    between atoms: _280  and  _281
REMARK  109  A    between atoms: _280  and  _283
REMARK  110  A    between atoms: _283  and  _284
REMARK  111  A    between atoms: _287  and  _289
REMARK  112  A    between atoms: _289  and  _290
REMARK  113  A    between atoms: _289  and  _292
REMARK  114  A    between atoms: _292  and  _293
REMARK  115  A    between atoms: _293  and  _294
REMARK  116  A    between atoms: _297  and  _299
REMARK  117  A    between atoms: _299  and  _300
REMARK  118  A    between atoms: _303  and  _305
REMARK  119  A    between atoms: _305  and  _306
REMARK  120  A    between atoms: _305  and  _308
REMARK  121  A    between atoms: _308  and  _309
REMARK  122  A    between atoms: _312  and  _314
REMARK  123  A    between atoms: _314  and  _315
REMARK  124  A    between atoms: _314  and  _317
REMARK  125  A    between atoms: _317  and  _318
REMARK  126  A    between atoms: _318  and  _319
REMARK  127  A    between atoms: _322  and  _324
REMARK  128  A    between atoms: _324  and  _325
REMARK  129  A    between atoms: _324  and  _327
REMARK  130  A    between atoms: _327  and  _328
REMARK  131  A    between atoms: _333  and  _335
REMARK  132  A    between atoms: _335  and  _336
REMARK  133  A    between atoms: _338  and  _340
REMARK  134  A    between atoms: _340  and  _341
REMARK  135  A    between atoms: _340  and  _343
REMARK  136  A    between atoms: _346  and  _348
REMARK  137  A    between atoms: _348  and  _349
REMARK  138  A    between atoms: _352  and  _354
REMARK  139  A    between atoms: _354  and  _355
REMARK  140  A    between atoms: _354  and  _357
REMARK  141  A    between atoms: _357  and  _358
REMARK  142  A    between atoms: _363  and  _365
REMARK  143  A    between atoms: _365  and  _366
REMARK  144  A    between atoms: _365  and  _368
REMARK  145  A    between atoms: _368  and  _369
REMARK  146  A    between atoms: _369  and  _370
REMARK  147  A    between atoms: _370  and  _371
REMARK  148  A    between atoms: _371  and  _372
REMARK  149  A    between atoms: _376  and  _378
REMARK  150  A    between atoms: _378  and  _379
REMARK  151  A    between atoms: _378  and  _381
REMARK  152  A    between atoms: _381  and  _382
REMARK  153  A    between atoms: _385  and  _387
REMARK  154  A    between atoms: _387  and  _388
REMARK  155  A    between atoms: _387  and  _390
REMARK  156  A    between atoms: _390  and  _391
REMARK  157  A    between atoms: _396  and  _398
REMARK  158  A    between atoms: _398  and  _399
REMARK  159  A    between atoms: _401  and  _403
REMARK  160  A    between atoms: _403  and  _404
REMARK  161  A    between atoms: _403  and  _406
REMARK  162  A    between atoms: _406  and  _407
REMARK  163  A    between atoms: _407  and  _408
REMARK  164  A    between atoms: _408  and  _409
REMARK  165  A    between atoms: _409  and  _410
REMARK  166  A    between atoms: _414  and  _416
REMARK  167  A    between atoms: _416  and  _417
REMARK  168  A    between atoms: _416  and  _419
REMARK  169  A    between atoms: _419  and  _420
REMARK  170  A    between atoms: _420  and  _421
REMARK  171  A    between atoms: _421  and  _422
REMARK  172  A    between atoms: _431  and  _433
REMARK  173  A    between atoms: _433  and  _434
REMARK  174  A    between atoms: _433  and  _436
REMARK  175  A    between atoms: _436  and  _437
REMARK  176  A    between atoms: _442  and  _444
REMARK  177  A    between atoms: _444  and  _445
REMARK  178  A    between atoms: _444  and  _447
REMARK  179  A    between atoms: _447  and  _448
REMARK  180  A    between atoms: _453  and  _454
REMARK  181  A    between atoms: _456  and  _458
REMARK  182  A    between atoms: _458  and  _459
REMARK  183  A    between atoms: _458  and  _461
REMARK  184  A    between atoms: _461  and  _462
REMARK  185  A    between atoms: _462  and  _463
REMARK  186  A    between atoms: _463  and  _464
REMARK  187  A    between atoms: _464  and  _465
REMARK  188  A    between atoms: _469  and  _471
REMARK  189  A    between atoms: _471  and  _472
REMARK  190  A    between atoms: _471  and  _474
REMARK  191  A    between atoms: _474  and  _475
REMARK  192  A    between atoms: _477  and  _479
REMARK  193  A    between atoms: _479  and  _480
REMARK  194  A    between atoms: _479  and  _482
REMARK  195  A    between atoms: _482  and  _483
REMARK  196  A    between atoms: _486  and  _488
REMARK  197  A    between atoms: _488  and  _489
REMARK  198  A    between atoms: _488  and  _491
REMARK  199  A    between atoms: _491  and  _492
REMARK  200  A    between atoms: _492  and  _493
REMARK  201  A    between atoms: _496  and  _498
REMARK  202  A    between atoms: _498  and  _499
REMARK  203  A    between atoms: _502  and  _504
REMARK  204  A    between atoms: _504  and  _505
REMARK  205  A    between atoms: _504  and  _507
REMARK  206  A    between atoms: _507  and  _508
REMARK  207  A    between atoms: _510  and  _512
REMARK  208  A    between atoms: _512  and  _513
REMARK  209  A    between atoms: _515  and  _517
REMARK  210  A    between atoms: _517  and  _518
REMARK  211  A    between atoms: _517  and  _520
REMARK  212  A    between atoms: _520  and  _521
REMARK  213  A    between atoms: _524  and  _526
REMARK  214  A    between atoms: _526  and  _527
REMARK  215  A    between atoms: _529  and  _531
REMARK  216  A    between atoms: _531  and  _532
REMARK  217  A    between atoms: _531  and  _534
REMARK  218  A    between atoms: _534  and  _535
REMARK  219  A    between atoms: _540  and  _542
REMARK  220  A    between atoms: _542  and  _543
REMARK  221  A    between atoms: _542  and  _545
REMARK  222  A    between atoms: _545  and  _546
REMARK  223  A    between atoms: _546  and  _547
REMARK  224  A    between atoms: _554  and  _555
REMARK  225  A    between atoms: _555  and  _571
REMARK  226  A    between atoms: _556  and  _558
REMARK  227  A    between atoms: _558  and  _559
REMARK  228  A    between atoms: _559  and  _560
REMARK  229  A    between atoms: _564  and  _566
REMARK  230  A    between atoms: _566  and  _567
REMARK  231  A    between atoms: _566  and  _574
REMARK  232  A    between atoms: _567  and  _568
REMARK  233  A    between atoms: _568  and  _569
REMARK  234  A    between atoms: _569  and  _570
REMARK  235  A    between atoms: _570  and  _571
REMARK  236  A    between atoms: _576  and  _578
REMARK  237  A    between atoms: _578  and  _579
REMARK  238  A    between atoms: _578  and  _581
REMARK  239  A    between atoms: _581  and  _582
REMARK  240  A    between atoms: _585  and  _587
REMARK  241  A    between atoms: _587  and  _588
REMARK  242  A    between atoms: _590  and  _592
REMARK  243  A    between atoms: _592  and  _593
REMARK  244  A    between atoms: _596  and  _598
REMARK  245  A    between atoms: _598  and  _599
REMARK  246  A    between atoms: _598  and  _601
REMARK  247  A    between atoms: _601  and  _602
REMARK  248  A    between atoms: _607  and  _608
REMARK                            x       y       z     vdW  Elec       q    Type
REMARK                         _______ _______ _______ _____ _____    ______ ____
ROOT
ATOM      1  CA  ASN A   3      36.333  27.893  29.674  0.00  0.00    +0.158 C 
ENDROOT
BRANCH   1   2
ATOM      2  C   ASN A   3      37.321  29.044  29.881  0.00  0.00    +0.241 C 
ATOM      3  N   PHE A   4      37.725  29.243  31.134  0.00  0.00    -0.297 N 
ATOM      4  H   PHE A   4      37.362  28.615  31.879  0.00  0.00    +0.150 HD
ATOM      5  O   ASN A   3      37.689  29.745  28.938  0.00  0.00    -0.273 OA
BRANCH   3   6
ATOM      6  CA  PHE A   4      38.654  30.302  31.507  0.00  0.00    +0.153 C 
BRANCH   6   7
ATOM      7  C   PHE A   4      39.322  29.931  32.820  0.00  0.00    +0.241 C 
ATOM      8  O   PHE A   4      38.649  29.564  33.783  0.00  0.00    -0.273 OA
ATOM      9  N   PHE A   5      40.648  30.038  32.848  0.00  0.00    -0.298 N 
ATOM     10  H   PHE A   5      41.144  30.382  32.001  0.00  0.00    +0.150 HD
BRANCH   9  11
ATOM     11  CA  PHE A   5      41.424  29.689  34.026  0.00  0.00    +0.141 C 
BRANCH  11  12
ATOM     12  C   PHE A   5      41.709  30.925  34.872  0.00  0.00    +0.227 C 
ATOM     13  O   PHE A   5      42.234  31.924  34.375  0.00  0.00    -0.286 OA
ENDBRANCH  11  12
BRANCH  11  14
ATOM     14  CB  PHE A   5      42.727  28.996  33.611  0.00  0.00    +0.054 C 
BRANCH  14  15
ATOM     15  CG  PHE A   5      43.693  28.767  34.742  0.00  0.00    -0.020 A 
ATOM     16  CD2 PHE A   5      43.326  28.015  35.854  0.00  0.00    -0.004 A 
ATOM     17  CE2 PHE A   5      44.229  27.799  36.896  0.00  0.00    -0.000 A 
ATOM     18  CZ  PHE A   5      45.503  28.331  36.826  0.00  0.00    -0.000 A 
ATOM     19  CE1 PHE A   5      45.883  29.089  35.725  0.00  0.00    -0.000 A 
ATOM     20  CD1 PHE A   5      44.977  29.304  34.691  0.00  0.00    -0.004 A 
ENDBRANCH  14  15
ENDBRANCH  11  14
ENDBRANCH   9  11
ENDBRANCH   6   7
BRANCH   6  21
ATOM     21  CB  PHE A   4      37.932  31.648  31.650  0.00  0.00    +0.055 C 
BRANCH  21  22
ATOM     22  CG  PHE A   4      38.847  32.799  31.988  0.00  0.00    -0.020 A 
ATOM     23  CD2 PHE A   4      38.949  33.265  33.295  0.00  0.00    -0.004 A 
ATOM     24  CE2 PHE A   4      39.793  34.330  33.616  0.00  0.00    -0.000 A 
ATOM     25  CZ  PHE A   4      40.544  34.942  32.618  0.00  0.00    -0.000 A 
ATOM     26  CE1 PHE A   4      40.444  34.488  31.301  0.00  0.00    -0.000 A 
ATOM     27  CD1 PHE A   4      39.598  33.423  30.995  0.00  0.00    -0.004 A 
ENDBRANCH  21  22
ENDBRANCH   6  21
ENDBRANCH   3   6
ENDBRANCH   1   2
BRANCH   1  29
ATOM     28  C   ASP A   2      34.502  29.019  30.840  0.00  0.00    +0.241 C 
ATOM     29  N   ASN A   3      35.252  27.933  30.661  0.00  0.00    -0.297 N 
ATOM     30  H   ASN A   3      35.064  27.089  31.239  0.00  0.00    +0.150 HD
ATOM     31  O   ASP A   2      34.729  30.099  30.297  0.00  0.00    -0.273 OA
BRANCH  28  32
ATOM     32  CA  ASP A   2      33.344  28.885  31.803  0.00  0.00    +0.160 C 
BRANCH  32  35
ATOM     33  C   ASN A   1      33.914  29.593  34.037  0.00  0.00    +0.239 C 
ATOM     34  O   ASN A   1      34.050  28.432  34.420  0.00  0.00    -0.274 OA
ATOM     35  N   ASP A   2      33.519  29.909  32.813  0.00  0.00    -0.297 N 
ATOM     36  H   ASP A   2      33.332  30.904  32.574  0.00  0.00    +0.150 HD
BRANCH  33  37
ATOM     37  CA  ASN A   1      34.193  30.757  34.964  0.00  0.00    +0.154 C 
BRANCH  37  38
ATOM     38  N   ASN A   1      33.516  30.631  36.251  0.00  0.00    -0.238 NA
ATOM     39  H   ASN A   1      33.941  30.034  36.989  0.00  0.00    +0.142 HD
ENDBRANCH  37  38
BRANCH  37  40
ATOM     40  CB  ASN A   1      35.704  30.901  35.156  0.00  0.00    +0.111 C 
BRANCH  40  41
ATOM     41  CG  ASN A   1      36.069  32.121  35.967  0.00  0.00    +0.221 C 
ATOM     42  ND2 ASN A   1      36.998  31.953  36.900  0.00  0.00    -0.329 N 
ATOM     43 HD21 ASN A   1      37.292  32.756  37.492  0.00  0.00    +0.145 HD
ATOM     44 HD22 ASN A   1      37.432  31.018  37.039  0.00  0.00    +0.145 HD
ATOM     45  OD1 ASN A   1      35.522  33.206  35.759  0.00  0.00    -0.275 OA
ENDBRANCH  40  41
ENDBRANCH  37  40
ENDBRANCH  33  37
ENDBRANCH  32  35
BRANCH  32  46
ATOM     46  CB  ASP A   2      32.008  29.058  31.075  0.00  0.00    +0.143 C 
BRANCH  46  47
ATOM     47  CG  ASP A   2      31.719  27.924  30.105  0.00  0.00    +0.367 C 
ATOM     48  OD2 ASP A   2      30.931  27.025  30.460  0.00  0.00    -0.246 OA
ATOM     49  OD1 ASP A   2      32.280  27.925  28.988  0.00  0.00    -0.246 OA
ENDBRANCH  46  47
ENDBRANCH  32  46
ENDBRANCH  28  32
ENDBRANCH   1  29
BRANCH   1  50
ATOM     50  CB  ASN A   3      35.738  27.942  28.258  0.00  0.00    +0.114 C 
BRANCH  50  51
ATOM     51  CG  ASN A   3      36.351  26.927  27.320  0.00  0.00    +0.222 C 
ATOM     52  OD1 ASN A   3      37.443  26.416  27.549  0.00  0.00    -0.275 OA
ATOM     53  ND2 ASN A   3      35.649  26.641  26.244  0.00  0.00    -0.329 N 
ATOM     54 HD21 ASN A   3      34.727  27.097  26.088  0.00  0.00    +0.145 HD
ATOM     55 HD22 ASN A   3      36.016  25.959  25.550  0.00  0.00    +0.145 HD
ENDBRANCH  50  51
ENDBRANCH   1  50
TORSDOF 20
REMARK  Name = ../refined-set-2016/3g2i/3g2i_pocket.pdb
REMARK  248 active torsions:
REMARK  status: ('A' for Active; 'I' for Inactive)
REMARK    1  A    between atoms: _1  and  _3
REMARK    2  A    between atoms: _3  and  _4
REMARK    3  A    between atoms: _3  and  _6
REMARK    4  A    between atoms: _6  and  _7
REMARK    5  A    between atoms: _12  and  _13
REMARK    6  A    between atoms: _15  and  _17
REMARK    7  A    between atoms: _17  and  _18
REMARK    8  A    between atoms: _17  and  _20
REMARK    9  A    between atoms: _20  and  _21
REMARK   10  A    between atoms: _21  and  _22
REMARK   11  A    between atoms: _25  and  _27
REMARK   12  A    between atoms: _27  and  _28
REMARK   13  A    between atoms: _27  and  _30
REMARK   14  A    between atoms: _30  and  _31
REMARK   15  A    between atoms: _36  and  _38
REMARK   16  A    between atoms: _38  and  _39
REMARK   17  A    between atoms: _41  and  _43
REMARK   18  A    between atoms: _43  and  _44
REMARK   19  A    between atoms: _46  and  _48
REMARK   20  A    between atoms: _48  and  _49
REMARK   21  A    between atoms: _48  and  _51
REMARK   22  A    between atoms: _51  and  _52
REMARK   23  A    between atoms: _55  and  _57
REMARK   24  A    between atoms: _57  and  _58
REMARK   25  A    between atoms: _60  and  _62
REMARK   26  A    between atoms: _62  and  _63
REMARK   27  A    between atoms: _62  and  _65
REMARK   28  A    between atoms: _65  and  _66
REMARK   29  A    between atoms: _66  and  _67
REMARK   30  A    between atoms: _67  and  _68
REMARK   31  A    between atoms: _77  and  _79
REMARK   32  A    between atoms: _79  and  _80
REMARK   33  A    between atoms: _79  and  _82
REMARK   34  A    between atoms: _82  and  _83
REMARK   35  A    between atoms: _86  and  _88
REMARK   36  A    between atoms: _88  and  _89
REMARK   37  A    between atoms: _92  and  _94
REMARK   38  A    between atoms: _94  and  _95
REMARK   39  A    between atoms: _94  and  _97
REMARK   40  A    between atoms: _97  and  _98
REMARK   41  A    between atoms: _104  and  _106
REMARK   42  A    between atoms: _106  and  _107
REMARK   43  A    between atoms: _106  and  _109
REMARK   44  A    between atoms: _109  and  _110
REMARK   45  A    between atoms: _115  and  _117
REMARK   46  A    between atoms: _117  and  _118
REMARK   47  A    between atoms: _117  and  _120
REMARK   48  A    between atoms: _120  and  _121
REMARK   49  A    between atoms: _124  and  _126
REMARK   50  A    between atoms: _126  and  _127
REMARK   51  A    between atoms: _126  and  _129
REMARK   52  A    between atoms: _129  and  _130
REMARK   53  A    between atoms: _135  and  _137
REMARK   54  A    between atoms: _137  and  _138
REMARK   55  A    between atoms: _137  and  _140
REMARK   56  A    between atoms: _140  and  _141
REMARK   57  A    between atoms: _147  and  _149
REMARK   58  A    between atoms: _149  and  _150
REMARK   59  A    between atoms: _149  and  _152
REMARK   60  A    between atoms: _152  and  _153
REMARK   61  A    between atoms: _159  and  _161
REMARK   62  A    between atoms: _161  and  _162
REMARK   63  A    between atoms: _161  and  _164
REMARK   64  A    between atoms: _164  and  _165
REMARK   65  A    between atoms: _165  and  _166
REMARK   66  A    between atoms: _166  and  _167
REMARK   67  A    between atoms: _176  and  _178
REMARK   68  A    between atoms: _178  and  _179
REMARK   69  A    between atoms: _178  and  _181
REMARK   70  A    between atoms: _181  and  _182
REMARK   71  A    between atoms: _187  and  _189
REMARK   72  A    between atoms: _189  and  _190
REMARK   73  A    between atoms: _189  and  _192
REMARK   74  A    between atoms: _192  and  _193
REMARK   75  A    between atoms: _196  and  _198
REMARK   76  A    between atoms: _198  and  _199
REMARK   77  A    between atoms: _198  and  _201
REMARK   78  A    between atoms: _201  and  _202
REMARK   79  A    between atoms: _205  and  _207
REMARK   80  A    between atoms: _207  and  _208
REMARK   81  A    between atoms: _207  and  _210
REMARK   82  A    between atoms: _210  and  _211
REMARK   83  A    between atoms: _216  and  _218
REMARK   84  A    between atoms: _218  and  _219
REMARK   85  A    between atoms: _218  and  _221
REMARK   86  A    between atoms: _221  and  _222
REMARK   87  A    between atoms: _227  and  _228
REMARK   88  A    between atoms: _230  and  _232
REMARK   89  A    between atoms: _232  and  _233
REMARK   90  A    between atoms: _232  and  _235
REMARK   91  A    between atoms: _235  and  _236
REMARK   92  A    between atoms: _239  and  _241
REMARK   93  A    between atoms: _241  and  _242
REMARK   94  A    between atoms: _241  and  _244
REMARK   95  A    between atoms: _244  and  _245
REMARK   96  A    between atoms: _250  and  _252
REMARK   97  A    between atoms: _252  and  _253
REMARK   98  A    between atoms: _252  and  _255
REMARK   99  A    between atoms: _255  and  _256
REMARK  100  A    between atoms: _261  and  _263
REMARK  101  A    between atoms: _263  and  _264
REMARK  102  A    between atoms: _263  and  _266
REMARK  103  A    between atoms: _266  and  _267
REMARK  104  A    between atoms: _270  and  _272
REMARK  105  A    between atoms: _272  and  _273
REMARK  106  A    between atoms: _272  and  _275
REMARK  107  A    between atoms: _278  and  _280
REMARK  108  A    between atoms: _280  and  _281
REMARK  109  A    between atoms: _280  and  _283
REMARK  110  A    between atoms: _283  and  _284
REMARK  111  A    between atoms: _287  and  _289
REMARK  112  A    between atoms: _289  and  _290
REMARK  113  A    between atoms: _289  and  _292
REMARK  114  A    between atoms: _292  and  _293
REMARK  115  A    between atoms: _293  and  _294
REMARK  116  A    between atoms: _297  and  _299
REMARK  117  A    between atoms: _299  and  _300
REMARK  118  A    between atoms: _303  and  _305
REMARK  119  A    between atoms: _305  and  _306
REMARK  120  A    between atoms: _305  and  _308
REMARK  121  A    between atoms: _308  and  _309
REMARK  122  A    between atoms: _312  and  _314
REMARK  123  A    between atoms: _314  and  _315
REMARK  124  A    between atoms: _314  and  _317
REMARK  125  A    between atoms: _317  and  _318
REMARK  126  A    between atoms: _318  and  _319
REMARK  127  A    between atoms: _322  and  _324
REMARK  128  A    between atoms: _324  and  _325
REMARK  129  A    between atoms: _324  and  _327
REMARK  130  A    between atoms: _327  and  _328
REMARK  131  A    between atoms: _333  and  _335
REMARK  132  A    between atoms: _335  and  _336
REMARK  133  A    between atoms: _338  and  _340
REMARK  134  A    between atoms: _340  and  _341
REMARK  135  A    between atoms: _340  and  _343
REMARK  136  A    between atoms: _346  and  _348
REMARK  137  A    between atoms: _348  and  _349
REMARK  138  A    between atoms: _352  and  _354
REMARK  139  A    between atoms: _354  and  _355
REMARK  140  A    between atoms: _354  and  _357
REMARK  141  A    between atoms: _357  and  _358
REMARK  142  A    between atoms: _363  and  _365
REMARK  143  A    between atoms: _365  and  _366
REMARK  144  A    between atoms: _365  and  _368
REMARK  145  A    between atoms: _368  and  _369
REMARK  146  A    between atoms: _369  and  _370
REMARK  147  A    between atoms: _370  and  _371
REMARK  148  A    between atoms: _371  and  _372
REMARK  149  A    between atoms: _376  and  _378
REMARK  150  A    between atoms: _378  and  _379
REMARK  151  A    between atoms: _378  and  _381
REMARK  152  A    between atoms: _381  and  _382
REMARK  153  A    between atoms: _385  and  _387
REMARK  154  A    between atoms: _387  and  _388
REMARK  155  A    between atoms: _387  and  _390
REMARK  156  A    between atoms: _390  and  _391
REMARK  157  A    between atoms: _396  and  _398
REMARK  158  A    between atoms: _398  and  _399
REMARK  159  A    between atoms: _401  and  _403
REMARK  160  A    between atoms: _403  and  _404
REMARK  161  A    between atoms: _403  and  _406
REMARK  162  A    between atoms: _406  and  _407
REMARK  163  A    between atoms: _407  and  _408
REMARK  164  A    between atoms: _408  and  _409
REMARK  165  A    between atoms: _409  and  _410
REMARK  166  A    between atoms: _414  and  _416
REMARK  167  A    between atoms: _416  and  _417
REMARK  168  A    between atoms: _416  and  _419
REMARK  169  A    between atoms: _419  and  _420
REMARK  170  A    between atoms: _420  and  _421
REMARK  171  A    between atoms: _421  and  _422
REMARK  172  A    between atoms: _431  and  _433
REMARK  173  A    between atoms: _433  and  _434
REMARK  174  A    between atoms: _433  and  _436
REMARK  175  A    between atoms: _436  and  _437
REMARK  176  A    between atoms: _442  and  _444
REMARK  177  A    between atoms: _444  and  _445
REMARK  178  A    between atoms: _444  and  _447
REMARK  179  A    between atoms: _447  and  _448
REMARK  180  A    between atoms: _453  and  _454
REMARK  181  A    between atoms: _456  and  _458
REMARK  182  A    between atoms: _458  and  _459
REMARK  183  A    between atoms: _458  and  _461
REMARK  184  A    between atoms: _461  and  _462
REMARK  185  A    between atoms: _462  and  _463
REMARK  186  A    between atoms: _463  and  _464
REMARK  187  A    between atoms: _464  and  _465
REMARK  188  A    between atoms: _469  and  _471
REMARK  189  A    between atoms: _471  and  _472
REMARK  190  A    between atoms: _471  and  _474
REMARK  191  A    between atoms: _474  and  _475
REMARK  192  A    between atoms: _477  and  _479
REMARK  193  A    between atoms: _479  and  _480
REMARK  194  A    between atoms: _479  and  _482
REMARK  195  A    between atoms: _482  and  _483
REMARK  196  A    between atoms: _486  and  _488
REMARK  197  A    between atoms: _488  and  _489
REMARK  198  A    between atoms: _488  and  _491
REMARK  199  A    between atoms: _491  and  _492
REMARK  200  A    between atoms: _492  and  _493
REMARK  201  A    between atoms: _496  and  _498
REMARK  202  A    between atoms: _498  and  _499
REMARK  203  A    between atoms: _502  and  _504
REMARK  204  A    between atoms: _504  and  _505
REMARK  205  A    between atoms: _504  and  _507
REMARK  206  A    between atoms: _507  and  _508
REMARK  207  A    between atoms: _510  and  _512
REMARK  208  A    between atoms: _512  and  _513
REMARK  209  A    between atoms: _515  and  _517
REMARK  210  A    between atoms: _517  and  _518
REMARK  211  A    between atoms: _517  and  _520
REMARK  212  A    between atoms: _520  and  _521
REMARK  213  A    between atoms: _524  and  _526
REMARK  214  A    between atoms: _526  and  _527
REMARK  215  A    between atoms: _529  and  _531
REMARK  216  A    between atoms: _531  and  _532
REMARK  217  A    between atoms: _531  and  _534
REMARK  218  A    between atoms: _534  and  _535
REMARK  219  A    between atoms: _540  and  _542
REMARK  220  A    between atoms: _542  and  _543
REMARK  221  A    between atoms: _542  and  _545
REMARK  222  A    between atoms: _545  and  _546
REMARK  223  A    between atoms: _546  and  _547
REMARK  224  A    between atoms: _554  and  _555
REMARK  225  A    between atoms: _555  and  _571
REMARK  226  A    between atoms: _556  and  _558
REMARK  227  A    between atoms: _558  and  _559
REMARK  228  A    between atoms: _559  and  _560
REMARK  229  A    between atoms: _564  and  _566
REMARK  230  A    between atoms: _566  and  _567
REMARK  231  A    between atoms: _566  and  _574
REMARK  232  A    between atoms: _567  and  _568
REMARK  233  A    between atoms: _568  and  _569
REMARK  234  A    between atoms: _569  and  _570
REMARK  235  A    between atoms: _570  and  _571
REMARK  236  A    between atoms: _576  and  _578
REMARK  237  A    between atoms: _578  and  _579
REMARK  238  A    between atoms: _578  and  _581
REMARK  239  A    between atoms: _581  and  _582
REMARK  240  A    between atoms: _585  and  _587
REMARK  241  A    between atoms: _587  and  _588
REMARK  242  A    between atoms: _590  and  _592
REMARK  243  A    between atoms: _592  and  _593
REMARK  244  A    between atoms: _596  and  _598
REMARK  245  A    between atoms: _598  and  _599
REMARK  246  A    between atoms: _598  and  _601
REMARK  247  A    between atoms: _601  and  _602
REMARK  248  A    between atoms: _607  and  _608
REMARK                            x       y       z     vdW  Elec       q    Type
REMARK                         _______ _______ _______ _____ _____    ______ ____
ROOT
ATOM      1  NE  ARG A   1      38.961  25.573  39.749  0.00  0.00    -0.265 N 
ATOM      2  HE  ARG A   1      39.853  25.281  39.302  0.00  0.00    +0.259 HD
ATOM      3  CZ  ARG A   1      37.828  25.157  39.190  0.00  0.00    +0.342 C 
ATOM      4  NH2 ARG A   1      36.654  25.491  39.715  0.00  0.00    -0.292 N 
ATOM      5 HH21 ARG A   1      36.616  26.082  40.570  0.00  0.00    +0.255 HD
ATOM      6 HH22 ARG A   1      35.773  25.161  39.271  0.00  0.00    +0.255 HD
ATOM      7  NH1 ARG A   1      37.877  24.405  38.096  0.00  0.00    -0.292 N 
ATOM      8 HH11 ARG A   1      38.796  24.146  37.684  0.00  0.00    +0.255 HD
ATOM      9 HH12 ARG A   1      36.996  24.075  37.652  0.00  0.00    +0.255 HD
ENDROOT
BRANCH   1  10
ATOM     10  CD  ARG A   1      39.046  26.408  40.941  0.00  0.00    +0.174 C 
BRANCH  10  11
ATOM     11  CG  ARG A   1      40.393  27.119  40.987  0.00  0.00    +0.045 C 
BRANCH  11  12
ATOM     12  CB  ARG A   1      40.523  28.068  42.163  0.00  0.00    +0.029 C 
BRANCH  12  13
ATOM     13  CA  ARG A   1      40.483  27.412  43.544  0.00  0.00    +0.133 C 
BRANCH  13  14
ATOM     14  N   ARG A   1      40.811  28.388  44.578  0.00  0.00    -0.239 NA
ATOM     15  H   ARG A   1      41.174  29.322  44.299  0.00  0.00    +0.142 HD
ENDBRANCH  13  14
BRANCH  13  16
ATOM     16  C   ARG A   1      41.410  26.197  43.617  0.00  0.00    +0.224 C 
ATOM     17  O   ARG A   1      40.966  25.057  43.486  0.00  0.00    -0.287 OA
ENDBRANCH  13  16
ENDBRANCH  12  13
ENDBRANCH  11  12
ENDBRANCH  10  11
ENDBRANCH   1  10
TORSDOF 6
REMARK  Name = ../refined-set-2016/3g2i/3g2i_pocket.pdb
REMARK  248 active torsions:
REMARK  status: ('A' for Active; 'I' for Inactive)
REMARK    1  A    between atoms: _1  and  _3
REMARK    2  A    between atoms: _3  and  _4
REMARK    3  A    between atoms: _3  and  _6
REMARK    4  A    between atoms: _6  and  _7
REMARK    5  A    between atoms: _12  and  _13
REMARK    6  A    between atoms: _15  and  _17
REMARK    7  A    between atoms: _17  and  _18
REMARK    8  A    between atoms: _17  and  _20
REMARK    9  A    between atoms: _20  and  _21
REMARK   10  A    between atoms: _21  and  _22
REMARK   11  A    between atoms: _25  and  _27
REMARK   12  A    between atoms: _27  and  _28
REMARK   13  A    between atoms: _27  and  _30
REMARK   14  A    between atoms: _30  and  _31
REMARK   15  A    between atoms: _36  and  _38
REMARK   16  A    between atoms: _38  and  _39
REMARK   17  A    between atoms: _41  and  _43
REMARK   18  A    between atoms: _43  and  _44
REMARK   19  A    between atoms: _46  and  _48
REMARK   20  A    between atoms: _48  and  _49
REMARK   21  A    between atoms: _48  and  _51
REMARK   22  A    between atoms: _51  and  _52
REMARK   23  A    between atoms: _55  and  _57
REMARK   24  A    between atoms: _57  and  _58
REMARK   25  A    between atoms: _60  and  _62
REMARK   26  A    between atoms: _62  and  _63
REMARK   27  A    between atoms: _62  and  _65
REMARK   28  A    between atoms: _65  and  _66
REMARK   29  A    between atoms: _66  and  _67
REMARK   30  A    between atoms: _67  and  _68
REMARK   31  A    between atoms: _77  and  _79
REMARK   32  A    between atoms: _79  and  _80
REMARK   33  A    between atoms: _79  and  _82
REMARK   34  A    between atoms: _82  and  _83
REMARK   35  A    between atoms: _86  and  _88
REMARK   36  A    between atoms: _88  and  _89
REMARK   37  A    between atoms: _92  and  _94
REMARK   38  A    between atoms: _94  and  _95
REMARK   39  A    between atoms: _94  and  _97
REMARK   40  A    between atoms: _97  and  _98
REMARK   41  A    between atoms: _104  and  _106
REMARK   42  A    between atoms: _106  and  _107
REMARK   43  A    between atoms: _106  and  _109
REMARK   44  A    between atoms: _109  and  _110
REMARK   45  A    between atoms: _115  and  _117
REMARK   46  A    between atoms: _117  and  _118
REMARK   47  A    between atoms: _117  and  _120
REMARK   48  A    between atoms: _120  and  _121
REMARK   49  A    between atoms: _124  and  _126
REMARK   50  A    between atoms: _126  and  _127
REMARK   51  A    between atoms: _126  and  _129
REMARK   52  A    between atoms: _129  and  _130
REMARK   53  A    between atoms: _135  and  _137
REMARK   54  A    between atoms: _137  and  _138
REMARK   55  A    between atoms: _137  and  _140
REMARK   56  A    between atoms: _140  and  _141
REMARK   57  A    between atoms: _147  and  _149
REMARK   58  A    between atoms: _149  and  _150
REMARK   59  A    between atoms: _149  and  _152
REMARK   60  A    between atoms: _152  and  _153
REMARK   61  A    between atoms: _159  and  _161
REMARK   62  A    between atoms: _161  and  _162
REMARK   63  A    between atoms: _161  and  _164
REMARK   64  A    between atoms: _164  and  _165
REMARK   65  A    between atoms: _165  and  _166
REMARK   66  A    between atoms: _166  and  _167
REMARK   67  A    between atoms: _176  and  _178
REMARK   68  A    between atoms: _178  and  _179
REMARK   69  A    between atoms: _178  and  _181
REMARK   70  A    between atoms: _181  and  _182
REMARK   71  A    between atoms: _187  and  _189
REMARK   72  A    between atoms: _189  and  _190
REMARK   73  A    between atoms: _189  and  _192
REMARK   74  A    between atoms: _192  and  _193
REMARK   75  A    between atoms: _196  and  _198
REMARK   76  A    between atoms: _198  and  _199
REMARK   77  A    between atoms: _198  and  _201
REMARK   78  A    between atoms: _201  and  _202
REMARK   79  A    between atoms: _205  and  _207
REMARK   80  A    between atoms: _207  and  _208
REMARK   81  A    between atoms: _207  and  _210
REMARK   82  A    between atoms: _210  and  _211
REMARK   83  A    between atoms: _216  and  _218
REMARK   84  A    between atoms: _218  and  _219
REMARK   85  A    between atoms: _218  and  _221
REMARK   86  A    between atoms: _221  and  _222
REMARK   87  A    between atoms: _227  and  _228
REMARK   88  A    between atoms: _230  and  _232
REMARK   89  A    between atoms: _232  and  _233
REMARK   90  A    between atoms: _232  and  _235
REMARK   91  A    between atoms: _235  and  _236
REMARK   92  A    between atoms: _239  and  _241
REMARK   93  A    between atoms: _241  and  _242
REMARK   94  A    between atoms: _241  and  _244
REMARK   95  A    between atoms: _244  and  _245
REMARK   96  A    between atoms: _250  and  _252
REMARK   97  A    between atoms: _252  and  _253
REMARK   98  A    between atoms: _252  and  _255
REMARK   99  A    between atoms: _255  and  _256
REMARK  100  A    between atoms: _261  and  _263
REMARK  101  A    between atoms: _263  and  _264
REMARK  102  A    between atoms: _263  and  _266
REMARK  103  A    between atoms: _266  and  _267
REMARK  104  A    between atoms: _270  and  _272
REMARK  105  A    between atoms: _272  and  _273
REMARK  106  A    between atoms: _272  and  _275
REMARK  107  A    between atoms: _278  and  _280
REMARK  108  A    between atoms: _280  and  _281
REMARK  109  A    between atoms: _280  and  _283
REMARK  110  A    between atoms: _283  and  _284
REMARK  111  A    between atoms: _287  and  _289
REMARK  112  A    between atoms: _289  and  _290
REMARK  113  A    between atoms: _289  and  _292
REMARK  114  A    between atoms: _292  and  _293
REMARK  115  A    between atoms: _293  and  _294
REMARK  116  A    between atoms: _297  and  _299
REMARK  117  A    between atoms: _299  and  _300
REMARK  118  A    between atoms: _303  and  _305
REMARK  119  A    between atoms: _305  and  _306
REMARK  120  A    between atoms: _305  and  _308
REMARK  121  A    between atoms: _308  and  _309
REMARK  122  A    between atoms: _312  and  _314
REMARK  123  A    between atoms: _314  and  _315
REMARK  124  A    between atoms: _314  and  _317
REMARK  125  A    between atoms: _317  and  _318
REMARK  126  A    between atoms: _318  and  _319
REMARK  127  A    between atoms: _322  and  _324
REMARK  128  A    between atoms: _324  and  _325
REMARK  129  A    between atoms: _324  and  _327
REMARK  130  A    between atoms: _327  and  _328
REMARK  131  A    between atoms: _333  and  _335
REMARK  132  A    between atoms: _335  and  _336
REMARK  133  A    between atoms: _338  and  _340
REMARK  134  A    between atoms: _340  and  _341
REMARK  135  A    between atoms: _340  and  _343
REMARK  136  A    between atoms: _346  and  _348
REMARK  137  A    between atoms: _348  and  _349
REMARK  138  A    between atoms: _352  and  _354
REMARK  139  A    between atoms: _354  and  _355
REMARK  140  A    between atoms: _354  and  _357
REMARK  141  A    between atoms: _357  and  _358
REMARK  142  A    between atoms: _363  and  _365
REMARK  143  A    between atoms: _365  and  _366
REMARK  144  A    between atoms: _365  and  _368
REMARK  145  A    between atoms: _368  and  _369
REMARK  146  A    between atoms: _369  and  _370
REMARK  147  A    between atoms: _370  and  _371
REMARK  148  A    between atoms: _371  and  _372
REMARK  149  A    between atoms: _376  and  _378
REMARK  150  A    between atoms: _378  and  _379
REMARK  151  A    between atoms: _378  and  _381
REMARK  152  A    between atoms: _381  and  _382
REMARK  153  A    between atoms: _385  and  _387
REMARK  154  A    between atoms: _387  and  _388
REMARK  155  A    between atoms: _387  and  _390
REMARK  156  A    between atoms: _390  and  _391
REMARK  157  A    between atoms: _396  and  _398
REMARK  158  A    between atoms: _398  and  _399
REMARK  159  A    between atoms: _401  and  _403
REMARK  160  A    between atoms: _403  and  _404
REMARK  161  A    between atoms: _403  and  _406
REMARK  162  A    between atoms: _406  and  _407
REMARK  163  A    between atoms: _407  and  _408
REMARK  164  A    between atoms: _408  and  _409
REMARK  165  A    between atoms: _409  and  _410
REMARK  166  A    between atoms: _414  and  _416
REMARK  167  A    between atoms: _416  and  _417
REMARK  168  A    between atoms: _416  and  _419
REMARK  169  A    between atoms: _419  and  _420
REMARK  170  A    between atoms: _420  and  _421
REMARK  171  A    between atoms: _421  and  _422
REMARK  172  A    between atoms: _431  and  _433
REMARK  173  A    between atoms: _433  and  _434
REMARK  174  A    between atoms: _433  and  _436
REMARK  175  A    between atoms: _436  and  _437
REMARK  176  A    between atoms: _442  and  _444
REMARK  177  A    between atoms: _444  and  _445
REMARK  178  A    between atoms: _444  and  _447
REMARK  179  A    between atoms: _447  and  _448
REMARK  180  A    between atoms: _453  and  _454
REMARK  181  A    between atoms: _456  and  _458
REMARK  182  A    between atoms: _458  and  _459
REMARK  183  A    between atoms: _458  and  _461
REMARK  184  A    between atoms: _461  and  _462
REMARK  185  A    between atoms: _462  and  _463
REMARK  186  A    between atoms: _463  and  _464
REMARK  187  A    between atoms: _464  and  _465
REMARK  188  A    between atoms: _469  and  _471
REMARK  189  A    between atoms: _471  and  _472
REMARK  190  A    between atoms: _471  and  _474
REMARK  191  A    between atoms: _474  and  _475
REMARK  192  A    between atoms: _477  and  _479
REMARK  193  A    between atoms: _479  and  _480
REMARK  194  A    between atoms: _479  and  _482
REMARK  195  A    between atoms: _482  and  _483
REMARK  196  A    between atoms: _486  and  _488
REMARK  197  A    between atoms: _488  and  _489
REMARK  198  A    between atoms: _488  and  _491
REMARK  199  A    between atoms: _491  and  _492
REMARK  200  A    between atoms: _492  and  _493
REMARK  201  A    between atoms: _496  and  _498
REMARK  202  A    between atoms: _498  and  _499
REMARK  203  A    between atoms: _502  and  _504
REMARK  204  A    between atoms: _504  and  _505
REMARK  205  A    between atoms: _504  and  _507
REMARK  206  A    between atoms: _507  and  _508
REMARK  207  A    between atoms: _510  and  _512
REMARK  208  A    between atoms: _512  and  _513
REMARK  209  A    between atoms: _515  and  _517
REMARK  210  A    between atoms: _517  and  _518
REMARK  211  A    between atoms: _517  and  _520
REMARK  212  A    between atoms: _520  and  _521
REMARK  213  A    between atoms: _524  and  _526
REMARK  214  A    between atoms: _526  and  _527
REMARK  215  A    between atoms: _529  and  _531
REMARK  216  A    between atoms: _531  and  _532
REMARK  217  A    between atoms: _531  and  _534
REMARK  218  A    between atoms: _534  and  _535
REMARK  219  A    between atoms: _540  and  _542
REMARK  220  A    between atoms: _542  and  _543
REMARK  221  A    between atoms: _542  and  _545
REMARK  222  A    between atoms: _545  and  _546
REMARK  223  A    between atoms: _546  and  _547
REMARK  224  A    between atoms: _554  and  _555
REMARK  225  A    between atoms: _555  and  _571
REMARK  226  A    between atoms: _556  and  _558
REMARK  227  A    between atoms: _558  and  _559
REMARK  228  A    between atoms: _559  and  _560
REMARK  229  A    between atoms: _564  and  _566
REMARK  230  A    between atoms: _566  and  _567
REMARK  231  A    between atoms: _566  and  _574
REMARK  232  A    between atoms: _567  and  _568
REMARK  233  A    between atoms: _568  and  _569
REMARK  234  A    between atoms: _569  and  _570
REMARK  235  A    between atoms: _570  and  _571
REMARK  236  A    between atoms: _576  and  _578
REMARK  237  A    between atoms: _578  and  _579
REMARK  238  A    between atoms: _578  and  _581
REMARK  239  A    between atoms: _581  and  _582
REMARK  240  A    between atoms: _585  and  _587
REMARK  241  A    between atoms: _587  and  _588
REMARK  242  A    between atoms: _590  and  _592
REMARK  243  A    between atoms: _592  and  _593
REMARK  244  A    between atoms: _596  and  _598
REMARK  245  A    between atoms: _598  and  _599
REMARK  246  A    between atoms: _598  and  _601
REMARK  247  A    between atoms: _601  and  _602
REMARK  248  A    between atoms: _607  and  _608
REMARK                            x       y       z     vdW  Elec       q    Type
REMARK                         _______ _______ _______ _____ _____    ______ ____
ROOT
ATOM      1  C   ASP A   2      40.614  18.052  33.574  0.00  0.00    +0.241 C 
ATOM      2  O   ASP A   2      40.780  17.018  34.222  0.00  0.00    -0.273 OA
ATOM      3  N   THR A   3      41.446  19.084  33.651  0.00  0.00    -0.295 N 
ATOM      4  H   THR A   3      41.255  19.937  33.088  0.00  0.00    +0.150 HD
ENDROOT
BRANCH   1   5
ATOM      5  CA  ASP A   2      39.427  18.190  32.620  0.00  0.00    +0.160 C 
BRANCH   5   8
ATOM      6  C   ASN A   1      37.772  16.938  33.934  0.00  0.00    +0.239 C 
ATOM      7  O   ASN A   1      37.690  17.802  34.813  0.00  0.00    -0.274 OA
ATOM      8  N   ASP A   2      38.507  17.075  32.830  0.00  0.00    -0.297 N 
ATOM      9  H   ASP A   2      38.421  16.355  32.084  0.00  0.00    +0.150 HD
BRANCH   6  10
ATOM     10  CA  ASN A   1      37.041  15.611  34.071  0.00  0.00    +0.154 C 
BRANCH  10  11
ATOM     11  N   ASN A   1      37.833  14.713  34.898  0.00  0.00    -0.238 NA
ATOM     12  H   ASN A   1      37.585  14.597  35.901  0.00  0.00    +0.142 HD
ENDBRANCH  10  11
BRANCH  10  13
ATOM     13  CB  ASN A   1      35.641  15.811  34.667  0.00  0.00    +0.111 C 
BRANCH  13  14
ATOM     14  CG  ASN A   1      34.680  16.475  33.699  0.00  0.00    +0.221 C 
ATOM     15  ND2 ASN A   1      33.714  17.212  34.232  0.00  0.00    -0.329 N 
ATOM     16 HD21 ASN A   1      33.653  17.321  35.264  0.00  0.00    +0.145 HD
ATOM     17 HD22 ASN A   1      33.018  17.681  33.617  0.00  0.00    +0.145 HD
ATOM     18  OD1 ASN A   1      34.795  16.316  32.488  0.00  0.00    -0.275 OA
ENDBRANCH  13  14
ENDBRANCH  10  13
ENDBRANCH   6  10
ENDBRANCH   5   8
BRANCH   5  19
ATOM     19  CB  ASP A   2      38.711  19.536  32.799  0.00  0.00    +0.143 C 
BRANCH  19  20
ATOM     20  CG  ASP A   2      39.254  20.613  31.887  0.00  0.00    +0.367 C 
ATOM     21  OD2 ASP A   2      40.482  20.763  31.794  0.00  0.00    -0.246 OA
ATOM     22  OD1 ASP A   2      38.445  21.334  31.279  0.00  0.00    -0.246 OA
ENDBRANCH  19  20
ENDBRANCH   5  19
ENDBRANCH   1   5
BRANCH   3  23
ATOM     23  CA  THR A   3      42.622  19.043  34.510  0.00  0.00    +0.176 C 
BRANCH  23  24
ATOM     24  C   THR A   3      42.296  19.486  35.927  0.00  0.00    +0.243 C 
ATOM     25  O   THR A   3      43.168  19.484  36.798  0.00  0.00    -0.273 OA
ATOM     26  N   HIS A   4      41.046  19.878  36.167  0.00  0.00    -0.298 N 
ATOM     27  H   HIS A   4      40.330  19.824  35.415  0.00  0.00    +0.150 HD
BRANCH  26  28
ATOM     28  CA  HIS A   4      40.682  20.384  37.488  0.00  0.00    +0.143 C 
BRANCH  28  29
ATOM     29  C   HIS A   4      41.045  19.433  38.629  0.00  0.00    +0.227 C 
ATOM     30  O   HIS A   4      41.551  19.879  39.651  0.00  0.00    -0.286 OA
ENDBRANCH  28  29
BRANCH  28  31
ATOM     31  CB  HIS A   4      39.212  20.826  37.554  0.00  0.00    +0.075 C 
BRANCH  31  32
ATOM     32  CG  HIS A   4      38.796  21.705  36.415  0.00  0.00    +0.082 A 
ATOM     33  ND1 HIS A   4      37.498  21.759  35.955  0.00  0.00    -0.227 NA
ATOM     34  CE1 HIS A   4      37.427  22.606  34.944  0.00  0.00    +0.199 A 
ATOM     35  NE2 HIS A   4      38.633  23.104  34.731  0.00  0.00    -0.221 NA
ATOM     36  CD2 HIS A   4      39.508  22.552  35.634  0.00  0.00    +0.115 A 
ENDBRANCH  31  32
ENDBRANCH  28  31
ENDBRANCH  26  28
ENDBRANCH  23  24
BRANCH  23  37
ATOM     37  CB  THR A   3      43.747  19.947  33.983  0.00  0.00    +0.137 C 
ATOM     38  CG2 THR A   3      44.227  19.488  32.629  0.00  0.00    +0.034 C 
BRANCH  37  39
ATOM     39  OG1 THR A   3      43.263  21.283  33.875  0.00  0.00    -0.382 OA
ATOM     40  HG1 THR A   3      42.971  21.600  34.766  0.00  0.00    +0.210 HD
ENDBRANCH  37  39
ENDBRANCH  23  37
ENDBRANCH   3  23
TORSDOF 16
REMARK  Name = ../refined-set-2016/3g2i/3g2i_pocket.pdb
REMARK  248 active torsions:
REMARK  status: ('A' for Active; 'I' for Inactive)
REMARK    1  A    between atoms: _1  and  _3
REMARK    2  A    between atoms: _3  and  _4
REMARK    3  A    between atoms: _3  and  _6
REMARK    4  A    between atoms: _6  and  _7
REMARK    5  A    between atoms: _12  and  _13
REMARK    6  A    between atoms: _15  and  _17
REMARK    7  A    between atoms: _17  and  _18
REMARK    8  A    between atoms: _17  and  _20
REMARK    9  A    between atoms: _20  and  _21
REMARK   10  A    between atoms: _21  and  _22
REMARK   11  A    between atoms: _25  and  _27
REMARK   12  A    between atoms: _27  and  _28
REMARK   13  A    between atoms: _27  and  _30
REMARK   14  A    between atoms: _30  and  _31
REMARK   15  A    between atoms: _36  and  _38
REMARK   16  A    between atoms: _38  and  _39
REMARK   17  A    between atoms: _41  and  _43
REMARK   18  A    between atoms: _43  and  _44
REMARK   19  A    between atoms: _46  and  _48
REMARK   20  A    between atoms: _48  and  _49
REMARK   21  A    between atoms: _48  and  _51
REMARK   22  A    between atoms: _51  and  _52
REMARK   23  A    between atoms: _55  and  _57
REMARK   24  A    between atoms: _57  and  _58
REMARK   25  A    between atoms: _60  and  _62
REMARK   26  A    between atoms: _62  and  _63
REMARK   27  A    between atoms: _62  and  _65
REMARK   28  A    between atoms: _65  and  _66
REMARK   29  A    between atoms: _66  and  _67
REMARK   30  A    between atoms: _67  and  _68
REMARK   31  A    between atoms: _77  and  _79
REMARK   32  A    between atoms: _79  and  _80
REMARK   33  A    between atoms: _79  and  _82
REMARK   34  A    between atoms: _82  and  _83
REMARK   35  A    between atoms: _86  and  _88
REMARK   36  A    between atoms: _88  and  _89
REMARK   37  A    between atoms: _92  and  _94
REMARK   38  A    between atoms: _94  and  _95
REMARK   39  A    between atoms: _94  and  _97
REMARK   40  A    between atoms: _97  and  _98
REMARK   41  A    between atoms: _104  and  _106
REMARK   42  A    between atoms: _106  and  _107
REMARK   43  A    between atoms: _106  and  _109
REMARK   44  A    between atoms: _109  and  _110
REMARK   45  A    between atoms: _115  and  _117
REMARK   46  A    between atoms: _117  and  _118
REMARK   47  A    between atoms: _117  and  _120
REMARK   48  A    between atoms: _120  and  _121
REMARK   49  A    between atoms: _124  and  _126
REMARK   50  A    between atoms: _126  and  _127
REMARK   51  A    between atoms: _126  and  _129
REMARK   52  A    between atoms: _129  and  _130
REMARK   53  A    between atoms: _135  and  _137
REMARK   54  A    between atoms: _137  and  _138
REMARK   55  A    between atoms: _137  and  _140
REMARK   56  A    between atoms: _140  and  _141
REMARK   57  A    between atoms: _147  and  _149
REMARK   58  A    between atoms: _149  and  _150
REMARK   59  A    between atoms: _149  and  _152
REMARK   60  A    between atoms: _152  and  _153
REMARK   61  A    between atoms: _159  and  _161
REMARK   62  A    between atoms: _161  and  _162
REMARK   63  A    between atoms: _161  and  _164
REMARK   64  A    between atoms: _164  and  _165
REMARK   65  A    between atoms: _165  and  _166
REMARK   66  A    between atoms: _166  and  _167
REMARK   67  A    between atoms: _176  and  _178
REMARK   68  A    between atoms: _178  and  _179
REMARK   69  A    between atoms: _178  and  _181
REMARK   70  A    between atoms: _181  and  _182
REMARK   71  A    between atoms: _187  and  _189
REMARK   72  A    between atoms: _189  and  _190
REMARK   73  A    between atoms: _189  and  _192
REMARK   74  A    between atoms: _192  and  _193
REMARK   75  A    between atoms: _196  and  _198
REMARK   76  A    between atoms: _198  and  _199
REMARK   77  A    between atoms: _198  and  _201
REMARK   78  A    between atoms: _201  and  _202
REMARK   79  A    between atoms: _205  and  _207
REMARK   80  A    between atoms: _207  and  _208
REMARK   81  A    between atoms: _207  and  _210
REMARK   82  A    between atoms: _210  and  _211
REMARK   83  A    between atoms: _216  and  _218
REMARK   84  A    between atoms: _218  and  _219
REMARK   85  A    between atoms: _218  and  _221
REMARK   86  A    between atoms: _221  and  _222
REMARK   87  A    between atoms: _227  and  _228
REMARK   88  A    between atoms: _230  and  _232
REMARK   89  A    between atoms: _232  and  _233
REMARK   90  A    between atoms: _232  and  _235
REMARK   91  A    between atoms: _235  and  _236
REMARK   92  A    between atoms: _239  and  _241
REMARK   93  A    between atoms: _241  and  _242
REMARK   94  A    between atoms: _241  and  _244
REMARK   95  A    between atoms: _244  and  _245
REMARK   96  A    between atoms: _250  and  _252
REMARK   97  A    between atoms: _252  and  _253
REMARK   98  A    between atoms: _252  and  _255
REMARK   99  A    between atoms: _255  and  _256
REMARK  100  A    between atoms: _261  and  _263
REMARK  101  A    between atoms: _263  and  _264
REMARK  102  A    between atoms: _263  and  _266
REMARK  103  A    between atoms: _266  and  _267
REMARK  104  A    between atoms: _270  and  _272
REMARK  105  A    between atoms: _272  and  _273
REMARK  106  A    between atoms: _272  and  _275
REMARK  107  A    between atoms: _278  and  _280
REMARK  108  A    between atoms: _280  and  _281
REMARK  109  A    between atoms: _280  and  _283
REMARK  110  A    between atoms: _283  and  _284
REMARK  111  A    between atoms: _287  and  _289
REMARK  112  A    between atoms: _289  and  _290
REMARK  113  A    between atoms: _289  and  _292
REMARK  114  A    between atoms: _292  and  _293
REMARK  115  A    between atoms: _293  and  _294
REMARK  116  A    between atoms: _297  and  _299
REMARK  117  A    between atoms: _299  and  _300
REMARK  118  A    between atoms: _303  and  _305
REMARK  119  A    between atoms: _305  and  _306
REMARK  120  A    between atoms: _305  and  _308
REMARK  121  A    between atoms: _308  and  _309
REMARK  122  A    between atoms: _312  and  _314
REMARK  123  A    between atoms: _314  and  _315
REMARK  124  A    between atoms: _314  and  _317
REMARK  125  A    between atoms: _317  and  _318
REMARK  126  A    between atoms: _318  and  _319
REMARK  127  A    between atoms: _322  and  _324
REMARK  128  A    between atoms: _324  and  _325
REMARK  129  A    between atoms: _324  and  _327
REMARK  130  A    between atoms: _327  and  _328
REMARK  131  A    between atoms: _333  and  _335
REMARK  132  A    between atoms: _335  and  _336
REMARK  133  A    between atoms: _338  and  _340
REMARK  134  A    between atoms: _340  and  _341
REMARK  135  A    between atoms: _340  and  _343
REMARK  136  A    between atoms: _346  and  _348
REMARK  137  A    between atoms: _348  and  _349
REMARK  138  A    between atoms: _352  and  _354
REMARK  139  A    between atoms: _354  and  _355
REMARK  140  A    between atoms: _354  and  _357
REMARK  141  A    between atoms: _357  and  _358
REMARK  142  A    between atoms: _363  and  _365
REMARK  143  A    between atoms: _365  and  _366
REMARK  144  A    between atoms: _365  and  _368
REMARK  145  A    between atoms: _368  and  _369
REMARK  146  A    between atoms: _369  and  _370
REMARK  147  A    between atoms: _370  and  _371
REMARK  148  A    between atoms: _371  and  _372
REMARK  149  A    between atoms: _376  and  _378
REMARK  150  A    between atoms: _378  and  _379
REMARK  151  A    between atoms: _378  and  _381
REMARK  152  A    between atoms: _381  and  _382
REMARK  153  A    between atoms: _385  and  _387
REMARK  154  A    between atoms: _387  and  _388
REMARK  155  A    between atoms: _387  and  _390
REMARK  156  A    between atoms: _390  and  _391
REMARK  157  A    between atoms: _396  and  _398
REMARK  158  A    between atoms: _398  and  _399
REMARK  159  A    between atoms: _401  and  _403
REMARK  160  A    between atoms: _403  and  _404
REMARK  161  A    between atoms: _403  and  _406
REMARK  162  A    between atoms: _406  and  _407
REMARK  163  A    between atoms: _407  and  _408
REMARK  164  A    between atoms: _408  and  _409
REMARK  165  A    between atoms: _409  and  _410
REMARK  166  A    between atoms: _414  and  _416
REMARK  167  A    between atoms: _416  and  _417
REMARK  168  A    between atoms: _416  and  _419
REMARK  169  A    between atoms: _419  and  _420
REMARK  170  A    between atoms: _420  and  _421
REMARK  171  A    between atoms: _421  and  _422
REMARK  172  A    between atoms: _431  and  _433
REMARK  173  A    between atoms: _433  and  _434
REMARK  174  A    between atoms: _433  and  _436
REMARK  175  A    between atoms: _436  and  _437
REMARK  176  A    between atoms: _442  and  _444
REMARK  177  A    between atoms: _444  and  _445
REMARK  178  A    between atoms: _444  and  _447
REMARK  179  A    between atoms: _447  and  _448
REMARK  180  A    between atoms: _453  and  _454
REMARK  181  A    between atoms: _456  and  _458
REMARK  182  A    between atoms: _458  and  _459
REMARK  183  A    between atoms: _458  and  _461
REMARK  184  A    between atoms: _461  and  _462
REMARK  185  A    between atoms: _462  and  _463
REMARK  186  A    between atoms: _463  and  _464
REMARK  187  A    between atoms: _464  and  _465
REMARK  188  A    between atoms: _469  and  _471
REMARK  189  A    between atoms: _471  and  _472
REMARK  190  A    between atoms: _471  and  _474
REMARK  191  A    between atoms: _474  and  _475
REMARK  192  A    between atoms: _477  and  _479
REMARK  193  A    between atoms: _479  and  _480
REMARK  194  A    between atoms: _479  and  _482
REMARK  195  A    between atoms: _482  and  _483
REMARK  196  A    between atoms: _486  and  _488
REMARK  197  A    between atoms: _488  and  _489
REMARK  198  A    between atoms: _488  and  _491
REMARK  199  A    between atoms: _491  and  _492
REMARK  200  A    between atoms: _492  and  _493
REMARK  201  A    between atoms: _496  and  _498
REMARK  202  A    between atoms: _498  and  _499
REMARK  203  A    between atoms: _502  and  _504
REMARK  204  A    between atoms: _504  and  _505
REMARK  205  A    between atoms: _504  and  _507
REMARK  206  A    between atoms: _507  and  _508
REMARK  207  A    between atoms: _510  and  _512
REMARK  208  A    between atoms: _512  and  _513
REMARK  209  A    between atoms: _515  and  _517
REMARK  210  A    between atoms: _517  and  _518
REMARK  211  A    between atoms: _517  and  _520
REMARK  212  A    between atoms: _520  and  _521
REMARK  213  A    between atoms: _524  and  _526
REMARK  214  A    between atoms: _526  and  _527
REMARK  215  A    between atoms: _529  and  _531
REMARK  216  A    between atoms: _531  and  _532
REMARK  217  A    between atoms: _531  and  _534
REMARK  218  A    between atoms: _534  and  _535
REMARK  219  A    between atoms: _540  and  _542
REMARK  220  A    between atoms: _542  and  _543
REMARK  221  A    between atoms: _542  and  _545
REMARK  222  A    between atoms: _545  and  _546
REMARK  223  A    between atoms: _546  and  _547
REMARK  224  A    between atoms: _554  and  _555
REMARK  225  A    between atoms: _555  and  _571
REMARK  226  A    between atoms: _556  and  _558
REMARK  227  A    between atoms: _558  and  _559
REMARK  228  A    between atoms: _559  and  _560
REMARK  229  A    between atoms: _564  and  _566
REMARK  230  A    between atoms: _566  and  _567
REMARK  231  A    between atoms: _566  and  _574
REMARK  232  A    between atoms: _567  and  _568
REMARK  233  A    between atoms: _568  and  _569
REMARK  234  A    between atoms: _569  and  _570
REMARK  235  A    between atoms: _570  and  _571
REMARK  236  A    between atoms: _576  and  _578
REMARK  237  A    between atoms: _578  and  _579
REMARK  238  A    between atoms: _578  and  _581
REMARK  239  A    between atoms: _581  and  _582
REMARK  240  A    between atoms: _585  and  _587
REMARK  241  A    between atoms: _587  and  _588
REMARK  242  A    between atoms: _590  and  _592
REMARK  243  A    between atoms: _592  and  _593
REMARK  244  A    between atoms: _596  and  _598
REMARK  245  A    between atoms: _598  and  _599
REMARK  246  A    between atoms: _598  and  _601
REMARK  247  A    between atoms: _601  and  _602
REMARK  248  A    between atoms: _607  and  _608
REMARK                            x       y       z     vdW  Elec       q    Type
REMARK                         _______ _______ _______ _____ _____    ______ ____
ROOT
ATOM      1  C   ASN A   3      39.146  17.886  27.052  0.00  0.00    +0.241 C 
ATOM      2  N   HIS A   4      38.833  19.128  27.412  0.00  0.00    -0.297 N 
ATOM      3  H   HIS A   4      39.499  19.669  27.999  0.00  0.00    +0.150 HD
ATOM      4  O   ASN A   3      38.479  17.225  26.250  0.00  0.00    -0.273 OA
ENDROOT
BRANCH   2   5
ATOM      5  CA  HIS A   4      37.583  19.747  27.005  0.00  0.00    +0.155 C 
BRANCH   5   6
ATOM      6  C   HIS A   4      37.780  21.061  26.260  0.00  0.00    +0.241 C 
ATOM      7  N   THR A   5      39.032  21.444  26.018  0.00  0.00    -0.295 N 
ATOM      8  H   THR A   5      39.820  20.811  26.264  0.00  0.00    +0.150 HD
ATOM      9  O   HIS A   4      36.805  21.727  25.925  0.00  0.00    -0.273 OA
BRANCH   7  10
ATOM     10  CA  THR A   5      39.311  22.740  25.412  0.00  0.00    +0.176 C 
BRANCH  10  11
ATOM     11  C   THR A   5      40.704  22.826  24.791  0.00  0.00    +0.243 C 
ATOM     12  O   THR A   5      41.628  22.113  25.198  0.00  0.00    -0.273 OA
ATOM     13  N   VAL A   6      40.837  23.697  23.793  0.00  0.00    -0.297 N 
ATOM     14  H   VAL A   6      39.987  24.133  23.382  0.00  0.00    +0.150 HD
BRANCH  13  15
ATOM     15  CA  VAL A   6      42.145  24.054  23.263  0.00  0.00    +0.149 C 
BRANCH  15  16
ATOM     16  C   VAL A   6      42.443  25.532  23.477  0.00  0.00    +0.241 C 
ATOM     17  N   LEU A   7      41.484  26.263  24.045  0.00  0.00    -0.298 N 
ATOM     18  H   LEU A   7      40.586  25.809  24.308  0.00  0.00    +0.150 HD
ATOM     19  O   VAL A   6      43.528  25.998  23.131  0.00  0.00    -0.273 OA
BRANCH  17  20
ATOM     20  CA  LEU A   7      41.667  27.689  24.306  0.00  0.00    +0.137 C 
BRANCH  20  21
ATOM     21  C   LEU A   7      42.750  27.882  25.358  0.00  0.00    +0.227 C 
ATOM     22  O   LEU A   7      42.635  27.352  26.460  0.00  0.00    -0.286 OA
ENDBRANCH  20  21
BRANCH  20  23
ATOM     23  CB  LEU A   7      40.358  28.353  24.749  0.00  0.00    +0.028 C 
BRANCH  23  24
ATOM     24  CG  LEU A   7      39.224  28.310  23.719  0.00  0.00    +0.002 C 
ATOM     25  CD2 LEU A   7      37.892  28.560  24.395  0.00  0.00    +0.000 C 
ATOM     26  CD1 LEU A   7      39.458  29.303  22.588  0.00  0.00    +0.000 C 
ENDBRANCH  23  24
ENDBRANCH  20  23
ENDBRANCH  17  20
ENDBRANCH  15  16
BRANCH  15  27
ATOM     27  CB  VAL A   6      42.320  23.690  21.762  0.00  0.00    +0.027 C 
ATOM     28  CG2 VAL A   6      42.124  22.186  21.547  0.00  0.00    +0.002 C 
ATOM     29  CG1 VAL A   6      41.383  24.522  20.869  0.00  0.00    +0.002 C 
ENDBRANCH  15  27
ENDBRANCH  13  15
ENDBRANCH  10  11
BRANCH  10  30
ATOM     30  CB  THR A   5      39.140  23.888  26.438  0.00  0.00    +0.137 C 
ATOM     31  CG2 THR A   5      40.307  23.920  27.433  0.00  0.00    +0.034 C 
BRANCH  30  32
ATOM     32  OG1 THR A   5      39.059  25.137  25.746  0.00  0.00    -0.382 OA
ATOM     33  HG1 THR A   5      38.950  25.870  26.402  0.00  0.00    +0.210 HD
ENDBRANCH  30  32
ENDBRANCH  10  30
ENDBRANCH   7  10
ENDBRANCH   5   6
BRANCH   5  34
ATOM     34  CB  HIS A   4      36.709  20.020  28.227  0.00  0.00    +0.076 C 
BRANCH  34  35
ATOM     35  CG  HIS A   4      36.242  18.794  28.937  0.00  0.00    +0.082 A 
ATOM     36  CD2 HIS A   4      36.793  18.090  29.953  0.00  0.00    +0.115 A 
ATOM     37  NE2 HIS A   4      35.933  17.061  30.245  0.00  0.00    -0.221 NA
ATOM     38  CE1 HIS A   4      34.891  17.131  29.436  0.00  0.00    +0.199 A 
ATOM     39  ND1 HIS A   4      35.051  18.171  28.638  0.00  0.00    -0.227 NA
ENDBRANCH  34  35
ENDBRANCH   5  34
ENDBRANCH   2   5
BRANCH   1  40
ATOM     40  CA  ASN A   3      40.402  17.303  27.677  0.00  0.00    +0.158 C 
BRANCH  40  43
ATOM     41  C   THR A   2      39.764  15.518  29.217  0.00  0.00    +0.243 C 
ATOM     42  O   THR A   2      39.623  16.281  30.176  0.00  0.00    -0.273 OA
ATOM     43  N   ASN A   3      40.182  15.910  28.017  0.00  0.00    -0.297 N 
ATOM     44  H   ASN A   3      40.359  15.187  27.291  0.00  0.00    +0.150 HD
BRANCH  41  45
ATOM     45  CA  THR A   2      39.462  14.035  29.352  0.00  0.00    +0.176 C 
BRANCH  45  47
ATOM     46  C   TYR A   1      41.313  12.698  30.167  0.00  0.00    +0.239 C 
ATOM     47  N   THR A   2      40.264  13.470  30.416  0.00  0.00    -0.295 N 
ATOM     48  H   THR A   2      40.011  13.675  31.404  0.00  0.00    +0.150 HD
ATOM     49  O   TYR A   1      41.629  12.327  29.043  0.00  0.00    -0.274 OA
BRANCH  46  50
ATOM     50  CA  TYR A   1      42.119  12.286  31.380  0.00  0.00    +0.149 C 
BRANCH  50  51
ATOM     51  N   TYR A   1      42.310  10.853  31.413  0.00  0.00    -0.238 NA
ATOM     52  H   TYR A   1      42.724  10.378  30.586  0.00  0.00    +0.142 HD
ENDBRANCH  50  51
BRANCH  50  53
ATOM     53  CB  TYR A   1      43.481  12.990  31.409  0.00  0.00    +0.053 C 
BRANCH  53  54
ATOM     54  CG  TYR A   1      43.514  14.404  30.864  0.00  0.00    -0.020 A 
ATOM     55  CD2 TYR A   1      42.744  15.420  31.433  0.00  0.00    -0.001 A 
ATOM     56  CE2 TYR A   1      42.784  16.724  30.932  0.00  0.00    +0.036 A 
ATOM     57  CZ  TYR A   1      43.618  17.022  29.868  0.00  0.00    +0.134 A 
ATOM     58  CE1 TYR A   1      44.398  16.033  29.291  0.00  0.00    +0.036 A 
ATOM     59  CD1 TYR A   1      44.348  14.732  29.794  0.00  0.00    -0.001 A 
BRANCH  57  60
ATOM     60  OH  TYR A   1      43.667  18.313  29.365  0.00  0.00    -0.506 OA
ATOM     61  HH  TYR A   1      42.768  18.576  29.045  0.00  0.00    +0.292 HD
ENDBRANCH  57  60
ENDBRANCH  53  54
ENDBRANCH  50  53
ENDBRANCH  46  50
ENDBRANCH  45  47
BRANCH  45  62
ATOM     62  CB  THR A   2      37.963  13.841  29.624  0.00  0.00    +0.137 C 
ATOM     63  CG2 THR A   2      37.124  14.366  28.469  0.00  0.00    +0.034 C 
BRANCH  62  64
ATOM     64  OG1 THR A   2      37.702  12.452  29.807  0.00  0.00    -0.382 OA
ATOM     65  HG1 THR A   2      37.961  11.958  28.989  0.00  0.00    +0.210 HD
ENDBRANCH  62  64
ENDBRANCH  45  62
ENDBRANCH  41  45
ENDBRANCH  40  43
BRANCH  40  66
ATOM     66  CB  ASN A   3      41.591  17.431  26.715  0.00  0.00    +0.114 C 
BRANCH  66  67
ATOM     67  CG  ASN A   3      41.752  18.838  26.176  0.00  0.00    +0.222 C 
ATOM     68  ND2 ASN A   3      42.639  19.610  26.783  0.00  0.00    -0.329 N 
ATOM     69 HD21 ASN A   3      43.187  19.240  27.586  0.00  0.00    +0.145 HD
ATOM     70 HD22 ASN A   3      42.788  20.586  26.457  0.00  0.00    +0.145 HD
ATOM     71  OD1 ASN A   3      41.079  19.226  25.223  0.00  0.00    -0.275 OA
ENDBRANCH  66  67
ENDBRANCH  40  66
ENDBRANCH   1  40
TORSDOF 28
REMARK  Name = ../refined-set-2016/3g2i/3g2i_pocket.pdb
REMARK  248 active torsions:
REMARK  status: ('A' for Active; 'I' for Inactive)
REMARK    1  A    between atoms: _1  and  _3
REMARK    2  A    between atoms: _3  and  _4
REMARK    3  A    between atoms: _3  and  _6
REMARK    4  A    between atoms: _6  and  _7
REMARK    5  A    between atoms: _12  and  _13
REMARK    6  A    between atoms: _15  and  _17
REMARK    7  A    between atoms: _17  and  _18
REMARK    8  A    between atoms: _17  and  _20
REMARK    9  A    between atoms: _20  and  _21
REMARK   10  A    between atoms: _21  and  _22
REMARK   11  A    between atoms: _25  and  _27
REMARK   12  A    between atoms: _27  and  _28
REMARK   13  A    between atoms: _27  and  _30
REMARK   14  A    between atoms: _30  and  _31
REMARK   15  A    between atoms: _36  and  _38
REMARK   16  A    between atoms: _38  and  _39
REMARK   17  A    between atoms: _41  and  _43
REMARK   18  A    between atoms: _43  and  _44
REMARK   19  A    between atoms: _46  and  _48
REMARK   20  A    between atoms: _48  and  _49
REMARK   21  A    between atoms: _48  and  _51
REMARK   22  A    between atoms: _51  and  _52
REMARK   23  A    between atoms: _55  and  _57
REMARK   24  A    between atoms: _57  and  _58
REMARK   25  A    between atoms: _60  and  _62
REMARK   26  A    between atoms: _62  and  _63
REMARK   27  A    between atoms: _62  and  _65
REMARK   28  A    between atoms: _65  and  _66
REMARK   29  A    between atoms: _66  and  _67
REMARK   30  A    between atoms: _67  and  _68
REMARK   31  A    between atoms: _77  and  _79
REMARK   32  A    between atoms: _79  and  _80
REMARK   33  A    between atoms: _79  and  _82
REMARK   34  A    between atoms: _82  and  _83
REMARK   35  A    between atoms: _86  and  _88
REMARK   36  A    between atoms: _88  and  _89
REMARK   37  A    between atoms: _92  and  _94
REMARK   38  A    between atoms: _94  and  _95
REMARK   39  A    between atoms: _94  and  _97
REMARK   40  A    between atoms: _97  and  _98
REMARK   41  A    between atoms: _104  and  _106
REMARK   42  A    between atoms: _106  and  _107
REMARK   43  A    between atoms: _106  and  _109
REMARK   44  A    between atoms: _109  and  _110
REMARK   45  A    between atoms: _115  and  _117
REMARK   46  A    between atoms: _117  and  _118
REMARK   47  A    between atoms: _117  and  _120
REMARK   48  A    between atoms: _120  and  _121
REMARK   49  A    between atoms: _124  and  _126
REMARK   50  A    between atoms: _126  and  _127
REMARK   51  A    between atoms: _126  and  _129
REMARK   52  A    between atoms: _129  and  _130
REMARK   53  A    between atoms: _135  and  _137
REMARK   54  A    between atoms: _137  and  _138
REMARK   55  A    between atoms: _137  and  _140
REMARK   56  A    between atoms: _140  and  _141
REMARK   57  A    between atoms: _147  and  _149
REMARK   58  A    between atoms: _149  and  _150
REMARK   59  A    between atoms: _149  and  _152
REMARK   60  A    between atoms: _152  and  _153
REMARK   61  A    between atoms: _159  and  _161
REMARK   62  A    between atoms: _161  and  _162
REMARK   63  A    between atoms: _161  and  _164
REMARK   64  A    between atoms: _164  and  _165
REMARK   65  A    between atoms: _165  and  _166
REMARK   66  A    between atoms: _166  and  _167
REMARK   67  A    between atoms: _176  and  _178
REMARK   68  A    between atoms: _178  and  _179
REMARK   69  A    between atoms: _178  and  _181
REMARK   70  A    between atoms: _181  and  _182
REMARK   71  A    between atoms: _187  and  _189
REMARK   72  A    between atoms: _189  and  _190
REMARK   73  A    between atoms: _189  and  _192
REMARK   74  A    between atoms: _192  and  _193
REMARK   75  A    between atoms: _196  and  _198
REMARK   76  A    between atoms: _198  and  _199
REMARK   77  A    between atoms: _198  and  _201
REMARK   78  A    between atoms: _201  and  _202
REMARK   79  A    between atoms: _205  and  _207
REMARK   80  A    between atoms: _207  and  _208
REMARK   81  A    between atoms: _207  and  _210
REMARK   82  A    between atoms: _210  and  _211
REMARK   83  A    between atoms: _216  and  _218
REMARK   84  A    between atoms: _218  and  _219
REMARK   85  A    between atoms: _218  and  _221
REMARK   86  A    between atoms: _221  and  _222
REMARK   87  A    between atoms: _227  and  _228
REMARK   88  A    between atoms: _230  and  _232
REMARK   89  A    between atoms: _232  and  _233
REMARK   90  A    between atoms: _232  and  _235
REMARK   91  A    between atoms: _235  and  _236
REMARK   92  A    between atoms: _239  and  _241
REMARK   93  A    between atoms: _241  and  _242
REMARK   94  A    between atoms: _241  and  _244
REMARK   95  A    between atoms: _244  and  _245
REMARK   96  A    between atoms: _250  and  _252
REMARK   97  A    between atoms: _252  and  _253
REMARK   98  A    between atoms: _252  and  _255
REMARK   99  A    between atoms: _255  and  _256
REMARK  100  A    between atoms: _261  and  _263
REMARK  101  A    between atoms: _263  and  _264
REMARK  102  A    between atoms: _263  and  _266
REMARK  103  A    between atoms: _266  and  _267
REMARK  104  A    between atoms: _270  and  _272
REMARK  105  A    between atoms: _272  and  _273
REMARK  106  A    between atoms: _272  and  _275
REMARK  107  A    between atoms: _278  and  _280
REMARK  108  A    between atoms: _280  and  _281
REMARK  109  A    between atoms: _280  and  _283
REMARK  110  A    between atoms: _283  and  _284
REMARK  111  A    between atoms: _287  and  _289
REMARK  112  A    between atoms: _289  and  _290
REMARK  113  A    between atoms: _289  and  _292
REMARK  114  A    between atoms: _292  and  _293
REMARK  115  A    between atoms: _293  and  _294
REMARK  116  A    between atoms: _297  and  _299
REMARK  117  A    between atoms: _299  and  _300
REMARK  118  A    between atoms: _303  and  _305
REMARK  119  A    between atoms: _305  and  _306
REMARK  120  A    between atoms: _305  and  _308
REMARK  121  A    between atoms: _308  and  _309
REMARK  122  A    between atoms: _312  and  _314
REMARK  123  A    between atoms: _314  and  _315
REMARK  124  A    between atoms: _314  and  _317
REMARK  125  A    between atoms: _317  and  _318
REMARK  126  A    between atoms: _318  and  _319
REMARK  127  A    between atoms: _322  and  _324
REMARK  128  A    between atoms: _324  and  _325
REMARK  129  A    between atoms: _324  and  _327
REMARK  130  A    between atoms: _327  and  _328
REMARK  131  A    between atoms: _333  and  _335
REMARK  132  A    between atoms: _335  and  _336
REMARK  133  A    between atoms: _338  and  _340
REMARK  134  A    between atoms: _340  and  _341
REMARK  135  A    between atoms: _340  and  _343
REMARK  136  A    between atoms: _346  and  _348
REMARK  137  A    between atoms: _348  and  _349
REMARK  138  A    between atoms: _352  and  _354
REMARK  139  A    between atoms: _354  and  _355
REMARK  140  A    between atoms: _354  and  _357
REMARK  141  A    between atoms: _357  and  _358
REMARK  142  A    between atoms: _363  and  _365
REMARK  143  A    between atoms: _365  and  _366
REMARK  144  A    between atoms: _365  and  _368
REMARK  145  A    between atoms: _368  and  _369
REMARK  146  A    between atoms: _369  and  _370
REMARK  147  A    between atoms: _370  and  _371
REMARK  148  A    between atoms: _371  and  _372
REMARK  149  A    between atoms: _376  and  _378
REMARK  150  A    between atoms: _378  and  _379
REMARK  151  A    between atoms: _378  and  _381
REMARK  152  A    between atoms: _381  and  _382
REMARK  153  A    between atoms: _385  and  _387
REMARK  154  A    between atoms: _387  and  _388
REMARK  155  A    between atoms: _387  and  _390
REMARK  156  A    between atoms: _390  and  _391
REMARK  157  A    between atoms: _396  and  _398
REMARK  158  A    between atoms: _398  and  _399
REMARK  159  A    between atoms: _401  and  _403
REMARK  160  A    between atoms: _403  and  _404
REMARK  161  A    between atoms: _403  and  _406
REMARK  162  A    between atoms: _406  and  _407
REMARK  163  A    between atoms: _407  and  _408
REMARK  164  A    between atoms: _408  and  _409
REMARK  165  A    between atoms: _409  and  _410
REMARK  166  A    between atoms: _414  and  _416
REMARK  167  A    between atoms: _416  and  _417
REMARK  168  A    between atoms: _416  and  _419
REMARK  169  A    between atoms: _419  and  _420
REMARK  170  A    between atoms: _420  and  _421
REMARK  171  A    between atoms: _421  and  _422
REMARK  172  A    between atoms: _431  and  _433
REMARK  173  A    between atoms: _433  and  _434
REMARK  174  A    between atoms: _433  and  _436
REMARK  175  A    between atoms: _436  and  _437
REMARK  176  A    between atoms: _442  and  _444
REMARK  177  A    between atoms: _444  and  _445
REMARK  178  A    between atoms: _444  and  _447
REMARK  179  A    between atoms: _447  and  _448
REMARK  180  A    between atoms: _453  and  _454
REMARK  181  A    between atoms: _456  and  _458
REMARK  182  A    between atoms: _458  and  _459
REMARK  183  A    between atoms: _458  and  _461
REMARK  184  A    between atoms: _461  and  _462
REMARK  185  A    between atoms: _462  and  _463
REMARK  186  A    between atoms: _463  and  _464
REMARK  187  A    between atoms: _464  and  _465
REMARK  188  A    between atoms: _469  and  _471
REMARK  189  A    between atoms: _471  and  _472
REMARK  190  A    between atoms: _471  and  _474
REMARK  191  A    between atoms: _474  and  _475
REMARK  192  A    between atoms: _477  and  _479
REMARK  193  A    between atoms: _479  and  _480
REMARK  194  A    between atoms: _479  and  _482
REMARK  195  A    between atoms: _482  and  _483
REMARK  196  A    between atoms: _486  and  _488
REMARK  197  A    between atoms: _488  and  _489
REMARK  198  A    between atoms: _488  and  _491
REMARK  199  A    between atoms: _491  and  _492
REMARK  200  A    between atoms: _492  and  _493
REMARK  201  A    between atoms: _496  and  _498
REMARK  202  A    between atoms: _498  and  _499
REMARK  203  A    between atoms: _502  and  _504
REMARK  204  A    between atoms: _504  and  _505
REMARK  205  A    between atoms: _504  and  _507
REMARK  206  A    between atoms: _507  and  _508
REMARK  207  A    between atoms: _510  and  _512
REMARK  208  A    between atoms: _512  and  _513
REMARK  209  A    between atoms: _515  and  _517
REMARK  210  A    between atoms: _517  and  _518
REMARK  211  A    between atoms: _517  and  _520
REMARK  212  A    between atoms: _520  and  _521
REMARK  213  A    between atoms: _524  and  _526
REMARK  214  A    between atoms: _526  and  _527
REMARK  215  A    between atoms: _529  and  _531
REMARK  216  A    between atoms: _531  and  _532
REMARK  217  A    between atoms: _531  and  _534
REMARK  218  A    between atoms: _534  and  _535
REMARK  219  A    between atoms: _540  and  _542
REMARK  220  A    between atoms: _542  and  _543
REMARK  221  A    between atoms: _542  and  _545
REMARK  222  A    between atoms: _545  and  _546
REMARK  223  A    between atoms: _546  and  _547
REMARK  224  A    between atoms: _554  and  _555
REMARK  225  A    between atoms: _555  and  _571
REMARK  226  A    between atoms: _556  and  _558
REMARK  227  A    between atoms: _558  and  _559
REMARK  228  A    between atoms: _559  and  _560
REMARK  229  A    between atoms: _564  and  _566
REMARK  230  A    between atoms: _566  and  _567
REMARK  231  A    between atoms: _566  and  _574
REMARK  232  A    between atoms: _567  and  _568
REMARK  233  A    between atoms: _568  and  _569
REMARK  234  A    between atoms: _569  and  _570
REMARK  235  A    between atoms: _570  and  _571
REMARK  236  A    between atoms: _576  and  _578
REMARK  237  A    between atoms: _578  and  _579
REMARK  238  A    between atoms: _578  and  _581
REMARK  239  A    between atoms: _581  and  _582
REMARK  240  A    between atoms: _585  and  _587
REMARK  241  A    between atoms: _587  and  _588
REMARK  242  A    between atoms: _590  and  _592
REMARK  243  A    between atoms: _592  and  _593
REMARK  244  A    between atoms: _596  and  _598
REMARK  245  A    between atoms: _598  and  _599
REMARK  246  A    between atoms: _598  and  _601
REMARK  247  A    between atoms: _601  and  _602
REMARK  248  A    between atoms: _607  and  _608
REMARK                            x       y       z     vdW  Elec       q    Type
REMARK                         _______ _______ _______ _____ _____    ______ ____
ROOT
ATOM      1  C   ALA A   2      42.189  26.906  30.326  0.00  0.00    +0.241 C 
ATOM      2  O   ALA A   2      41.758  26.193  31.236  0.00  0.00    -0.273 OA
ATOM      3  N   LEU A   3      43.415  26.780  29.822  0.00  0.00    -0.297 N 
ATOM      4  H   LEU A   3      43.734  27.450  29.093  0.00  0.00    +0.150 HD
ENDROOT
BRANCH   1   5
ATOM      5  CA  ALA A   2      41.313  27.994  29.713  0.00  0.00    +0.149 C 
ATOM      6  CB  ALA A   2      40.229  27.370  28.850  0.00  0.00    +0.031 C 
BRANCH   5   9
ATOM      7  C   GLU A   1      42.469  30.132  29.433  0.00  0.00    +0.238 C 
ATOM      8  O   GLU A   1      42.234  30.476  30.595  0.00  0.00    -0.274 OA
ATOM      9  N   ALA A   2      42.086  28.960  28.931  0.00  0.00    -0.297 N 
ATOM     10  H   ALA A   2      42.344  28.723  27.952  0.00  0.00    +0.150 HD
BRANCH   7  11
ATOM     11  CA  GLU A   1      43.238  31.062  28.489  0.00  0.00    +0.145 C 
BRANCH  11  12
ATOM     12  N   GLU A   1      43.662  30.408  27.249  0.00  0.00    -0.238 NA
ATOM     13  H   GLU A   1      43.203  30.676  26.355  0.00  0.00    +0.142 HD
ENDBRANCH  11  12
BRANCH  11  14
ATOM     14  CB  GLU A   1      42.402  32.316  28.195  0.00  0.00    +0.038 C 
BRANCH  14  15
ATOM     15  CG  GLU A   1      41.082  32.062  27.461  0.00  0.00    +0.116 C 
BRANCH  15  16
ATOM     16  CD  GLU A   1      41.186  32.213  25.947  0.00  0.00    +0.365 C 
ATOM     17  OE2 GLU A   1      42.213  31.818  25.360  0.00  0.00    -0.246 OA
ATOM     18  OE1 GLU A   1      40.225  32.730  25.341  0.00  0.00    -0.246 OA
ENDBRANCH  15  16
ENDBRANCH  14  15
ENDBRANCH  11  14
ENDBRANCH   7  11
ENDBRANCH   5   9
ENDBRANCH   1   5
BRANCH   3  19
ATOM     19  CA  LEU A   3      44.322  25.727  30.266  0.00  0.00    +0.149 C 
BRANCH  19  20
ATOM     20  C   LEU A   3      44.952  26.065  31.612  0.00  0.00    +0.241 C 
ATOM     21  N   GLU A   4      44.923  25.100  32.524  0.00  0.00    -0.298 N 
ATOM     22  H   GLU A   4      44.549  24.166  32.261  0.00  0.00    +0.150 HD
ATOM     23  O   LEU A   3      45.437  27.176  31.825  0.00  0.00    -0.273 OA
BRANCH  21  24
ATOM     24  CA  GLU A   4      45.399  25.315  33.878  0.00  0.00    +0.137 C 
BRANCH  24  25
ATOM     25  C   GLU A   4      46.908  25.260  33.946  0.00  0.00    +0.227 C 
ATOM     26  O   GLU A   4      47.523  24.239  33.641  0.00  0.00    -0.286 OA
ENDBRANCH  24  25
BRANCH  24  27
ATOM     27  CB  GLU A   4      44.814  24.284  34.830  0.00  0.00    +0.039 C 
BRANCH  27  28
ATOM     28  CG  GLU A   4      43.333  24.447  35.076  0.00  0.00    +0.116 C 
BRANCH  28  29
ATOM     29  CD  GLU A   4      42.910  23.710  36.308  0.00  0.00    +0.365 C 
ATOM     30  OE2 GLU A   4      42.556  24.382  37.293  0.00  0.00    -0.246 OA
ATOM     31  OE1 GLU A   4      42.957  22.462  36.298  0.00  0.00    -0.246 OA
ENDBRANCH  28  29
ENDBRANCH  27  28
ENDBRANCH  24  27
ENDBRANCH  21  24
ENDBRANCH  19  20
BRANCH  19  32
ATOM     32  CB  LEU A   3      45.395  25.447  29.207  0.00  0.00    +0.029 C 
BRANCH  32  33
ATOM     33  CG  LEU A   3      44.909  24.943  27.841  0.00  0.00    +0.002 C 
ATOM     34  CD2 LEU A   3      44.088  23.656  27.940  0.00  0.00    +0.000 C 
ATOM     35  CD1 LEU A   3      46.098  24.740  26.919  0.00  0.00    +0.000 C 
ENDBRANCH  32  33
ENDBRANCH  19  32
ENDBRANCH   3  19
TORSDOF 16
REMARK  Name = ../refined-set-2016/3g2i/3g2i_pocket.pdb
REMARK  248 active torsions:
REMARK  status: ('A' for Active; 'I' for Inactive)
REMARK    1  A    between atoms: _1  and  _3
REMARK    2  A    between atoms: _3  and  _4
REMARK    3  A    between atoms: _3  and  _6
REMARK    4  A    between atoms: _6  and  _7
REMARK    5  A    between atoms: _12  and  _13
REMARK    6  A    between atoms: _15  and  _17
REMARK    7  A    between atoms: _17  and  _18
REMARK    8  A    between atoms: _17  and  _20
REMARK    9  A    between atoms: _20  and  _21
REMARK   10  A    between atoms: _21  and  _22
REMARK   11  A    between atoms: _25  and  _27
REMARK   12  A    between atoms: _27  and  _28
REMARK   13  A    between atoms: _27  and  _30
REMARK   14  A    between atoms: _30  and  _31
REMARK   15  A    between atoms: _36  and  _38
REMARK   16  A    between atoms: _38  and  _39
REMARK   17  A    between atoms: _41  and  _43
REMARK   18  A    between atoms: _43  and  _44
REMARK   19  A    between atoms: _46  and  _48
REMARK   20  A    between atoms: _48  and  _49
REMARK   21  A    between atoms: _48  and  _51
REMARK   22  A    between atoms: _51  and  _52
REMARK   23  A    between atoms: _55  and  _57
REMARK   24  A    between atoms: _57  and  _58
REMARK   25  A    between atoms: _60  and  _62
REMARK   26  A    between atoms: _62  and  _63
REMARK   27  A    between atoms: _62  and  _65
REMARK   28  A    between atoms: _65  and  _66
REMARK   29  A    between atoms: _66  and  _67
REMARK   30  A    between atoms: _67  and  _68
REMARK   31  A    between atoms: _77  and  _79
REMARK   32  A    between atoms: _79  and  _80
REMARK   33  A    between atoms: _79  and  _82
REMARK   34  A    between atoms: _82  and  _83
REMARK   35  A    between atoms: _86  and  _88
REMARK   36  A    between atoms: _88  and  _89
REMARK   37  A    between atoms: _92  and  _94
REMARK   38  A    between atoms: _94  and  _95
REMARK   39  A    between atoms: _94  and  _97
REMARK   40  A    between atoms: _97  and  _98
REMARK   41  A    between atoms: _104  and  _106
REMARK   42  A    between atoms: _106  and  _107
REMARK   43  A    between atoms: _106  and  _109
REMARK   44  A    between atoms: _109  and  _110
REMARK   45  A    between atoms: _115  and  _117
REMARK   46  A    between atoms: _117  and  _118
REMARK   47  A    between atoms: _117  and  _120
REMARK   48  A    between atoms: _120  and  _121
REMARK   49  A    between atoms: _124  and  _126
REMARK   50  A    between atoms: _126  and  _127
REMARK   51  A    between atoms: _126  and  _129
REMARK   52  A    between atoms: _129  and  _130
REMARK   53  A    between atoms: _135  and  _137
REMARK   54  A    between atoms: _137  and  _138
REMARK   55  A    between atoms: _137  and  _140
REMARK   56  A    between atoms: _140  and  _141
REMARK   57  A    between atoms: _147  and  _149
REMARK   58  A    between atoms: _149  and  _150
REMARK   59  A    between atoms: _149  and  _152
REMARK   60  A    between atoms: _152  and  _153
REMARK   61  A    between atoms: _159  and  _161
REMARK   62  A    between atoms: _161  and  _162
REMARK   63  A    between atoms: _161  and  _164
REMARK   64  A    between atoms: _164  and  _165
REMARK   65  A    between atoms: _165  and  _166
REMARK   66  A    between atoms: _166  and  _167
REMARK   67  A    between atoms: _176  and  _178
REMARK   68  A    between atoms: _178  and  _179
REMARK   69  A    between atoms: _178  and  _181
REMARK   70  A    between atoms: _181  and  _182
REMARK   71  A    between atoms: _187  and  _189
REMARK   72  A    between atoms: _189  and  _190
REMARK   73  A    between atoms: _189  and  _192
REMARK   74  A    between atoms: _192  and  _193
REMARK   75  A    between atoms: _196  and  _198
REMARK   76  A    between atoms: _198  and  _199
REMARK   77  A    between atoms: _198  and  _201
REMARK   78  A    between atoms: _201  and  _202
REMARK   79  A    between atoms: _205  and  _207
REMARK   80  A    between atoms: _207  and  _208
REMARK   81  A    between atoms: _207  and  _210
REMARK   82  A    between atoms: _210  and  _211
REMARK   83  A    between atoms: _216  and  _218
REMARK   84  A    between atoms: _218  and  _219
REMARK   85  A    between atoms: _218  and  _221
REMARK   86  A    between atoms: _221  and  _222
REMARK   87  A    between atoms: _227  and  _228
REMARK   88  A    between atoms: _230  and  _232
REMARK   89  A    between atoms: _232  and  _233
REMARK   90  A    between atoms: _232  and  _235
REMARK   91  A    between atoms: _235  and  _236
REMARK   92  A    between atoms: _239  and  _241
REMARK   93  A    between atoms: _241  and  _242
REMARK   94  A    between atoms: _241  and  _244
REMARK   95  A    between atoms: _244  and  _245
REMARK   96  A    between atoms: _250  and  _252
REMARK   97  A    between atoms: _252  and  _253
REMARK   98  A    between atoms: _252  and  _255
REMARK   99  A    between atoms: _255  and  _256
REMARK  100  A    between atoms: _261  and  _263
REMARK  101  A    between atoms: _263  and  _264
REMARK  102  A    between atoms: _263  and  _266
REMARK  103  A    between atoms: _266  and  _267
REMARK  104  A    between atoms: _270  and  _272
REMARK  105  A    between atoms: _272  and  _273
REMARK  106  A    between atoms: _272  and  _275
REMARK  107  A    between atoms: _278  and  _280
REMARK  108  A    between atoms: _280  and  _281
REMARK  109  A    between atoms: _280  and  _283
REMARK  110  A    between atoms: _283  and  _284
REMARK  111  A    between atoms: _287  and  _289
REMARK  112  A    between atoms: _289  and  _290
REMARK  113  A    between atoms: _289  and  _292
REMARK  114  A    between atoms: _292  and  _293
REMARK  115  A    between atoms: _293  and  _294
REMARK  116  A    between atoms: _297  and  _299
REMARK  117  A    between atoms: _299  and  _300
REMARK  118  A    between atoms: _303  and  _305
REMARK  119  A    between atoms: _305  and  _306
REMARK  120  A    between atoms: _305  and  _308
REMARK  121  A    between atoms: _308  and  _309
REMARK  122  A    between atoms: _312  and  _314
REMARK  123  A    between atoms: _314  and  _315
REMARK  124  A    between atoms: _314  and  _317
REMARK  125  A    between atoms: _317  and  _318
REMARK  126  A    between atoms: _318  and  _319
REMARK  127  A    between atoms: _322  and  _324
REMARK  128  A    between atoms: _324  and  _325
REMARK  129  A    between atoms: _324  and  _327
REMARK  130  A    between atoms: _327  and  _328
REMARK  131  A    between atoms: _333  and  _335
REMARK  132  A    between atoms: _335  and  _336
REMARK  133  A    between atoms: _338  and  _340
REMARK  134  A    between atoms: _340  and  _341
REMARK  135  A    between atoms: _340  and  _343
REMARK  136  A    between atoms: _346  and  _348
REMARK  137  A    between atoms: _348  and  _349
REMARK  138  A    between atoms: _352  and  _354
REMARK  139  A    between atoms: _354  and  _355
REMARK  140  A    between atoms: _354  and  _357
REMARK  141  A    between atoms: _357  and  _358
REMARK  142  A    between atoms: _363  and  _365
REMARK  143  A    between atoms: _365  and  _366
REMARK  144  A    between atoms: _365  and  _368
REMARK  145  A    between atoms: _368  and  _369
REMARK  146  A    between atoms: _369  and  _370
REMARK  147  A    between atoms: _370  and  _371
REMARK  148  A    between atoms: _371  and  _372
REMARK  149  A    between atoms: _376  and  _378
REMARK  150  A    between atoms: _378  and  _379
REMARK  151  A    between atoms: _378  and  _381
REMARK  152  A    between atoms: _381  and  _382
REMARK  153  A    between atoms: _385  and  _387
REMARK  154  A    between atoms: _387  and  _388
REMARK  155  A    between atoms: _387  and  _390
REMARK  156  A    between atoms: _390  and  _391
REMARK  157  A    between atoms: _396  and  _398
REMARK  158  A    between atoms: _398  and  _399
REMARK  159  A    between atoms: _401  and  _403
REMARK  160  A    between atoms: _403  and  _404
REMARK  161  A    between atoms: _403  and  _406
REMARK  162  A    between atoms: _406  and  _407
REMARK  163  A    between atoms: _407  and  _408
REMARK  164  A    between atoms: _408  and  _409
REMARK  165  A    between atoms: _409  and  _410
REMARK  166  A    between atoms: _414  and  _416
REMARK  167  A    between atoms: _416  and  _417
REMARK  168  A    between atoms: _416  and  _419
REMARK  169  A    between atoms: _419  and  _420
REMARK  170  A    between atoms: _420  and  _421
REMARK  171  A    between atoms: _421  and  _422
REMARK  172  A    between atoms: _431  and  _433
REMARK  173  A    between atoms: _433  and  _434
REMARK  174  A    between atoms: _433  and  _436
REMARK  175  A    between atoms: _436  and  _437
REMARK  176  A    between atoms: _442  and  _444
REMARK  177  A    between atoms: _444  and  _445
REMARK  178  A    between atoms: _444  and  _447
REMARK  179  A    between atoms: _447  and  _448
REMARK  180  A    between atoms: _453  and  _454
REMARK  181  A    between atoms: _456  and  _458
REMARK  182  A    between atoms: _458  and  _459
REMARK  183  A    between atoms: _458  and  _461
REMARK  184  A    between atoms: _461  and  _462
REMARK  185  A    between atoms: _462  and  _463
REMARK  186  A    between atoms: _463  and  _464
REMARK  187  A    between atoms: _464  and  _465
REMARK  188  A    between atoms: _469  and  _471
REMARK  189  A    between atoms: _471  and  _472
REMARK  190  A    between atoms: _471  and  _474
REMARK  191  A    between atoms: _474  and  _475
REMARK  192  A    between atoms: _477  and  _479
REMARK  193  A    between atoms: _479  and  _480
REMARK  194  A    between atoms: _479  and  _482
REMARK  195  A    between atoms: _482  and  _483
REMARK  196  A    between atoms: _486  and  _488
REMARK  197  A    between atoms: _488  and  _489
REMARK  198  A    between atoms: _488  and  _491
REMARK  199  A    between atoms: _491  and  _492
REMARK  200  A    between atoms: _492  and  _493
REMARK  201  A    between atoms: _496  and  _498
REMARK  202  A    between atoms: _498  and  _499
REMARK  203  A    between atoms: _502  and  _504
REMARK  204  A    between atoms: _504  and  _505
REMARK  205  A    between atoms: _504  and  _507
REMARK  206  A    between atoms: _507  and  _508
REMARK  207  A    between atoms: _510  and  _512
REMARK  208  A    between atoms: _512  and  _513
REMARK  209  A    between atoms: _515  and  _517
REMARK  210  A    between atoms: _517  and  _518
REMARK  211  A    between atoms: _517  and  _520
REMARK  212  A    between atoms: _520  and  _521
REMARK  213  A    between atoms: _524  and  _526
REMARK  214  A    between atoms: _526  and  _527
REMARK  215  A    between atoms: _529  and  _531
REMARK  216  A    between atoms: _531  and  _532
REMARK  217  A    between atoms: _531  and  _534
REMARK  218  A    between atoms: _534  and  _535
REMARK  219  A    between atoms: _540  and  _542
REMARK  220  A    between atoms: _542  and  _543
REMARK  221  A    between atoms: _542  and  _545
REMARK  222  A    between atoms: _545  and  _546
REMARK  223  A    between atoms: _546  and  _547
REMARK  224  A    between atoms: _554  and  _555
REMARK  225  A    between atoms: _555  and  _571
REMARK  226  A    between atoms: _556  and  _558
REMARK  227  A    between atoms: _558  and  _559
REMARK  228  A    between atoms: _559  and  _560
REMARK  229  A    between atoms: _564  and  _566
REMARK  230  A    between atoms: _566  and  _567
REMARK  231  A    between atoms: _566  and  _574
REMARK  232  A    between atoms: _567  and  _568
REMARK  233  A    between atoms: _568  and  _569
REMARK  234  A    between atoms: _569  and  _570
REMARK  235  A    between atoms: _570  and  _571
REMARK  236  A    between atoms: _576  and  _578
REMARK  237  A    between atoms: _578  and  _579
REMARK  238  A    between atoms: _578  and  _581
REMARK  239  A    between atoms: _581  and  _582
REMARK  240  A    between atoms: _585  and  _587
REMARK  241  A    between atoms: _587  and  _588
REMARK  242  A    between atoms: _590  and  _592
REMARK  243  A    between atoms: _592  and  _593
REMARK  244  A    between atoms: _596  and  _598
REMARK  245  A    between atoms: _598  and  _599
REMARK  246  A    between atoms: _598  and  _601
REMARK  247  A    between atoms: _601  and  _602
REMARK  248  A    between atoms: _607  and  _608
REMARK                            x       y       z     vdW  Elec       q    Type
REMARK                         _______ _______ _______ _____ _____    ______ ____
ROOT
ATOM      1  C   GLY A   2      37.460  14.405  23.330  0.00  0.00    +0.243 C 
ATOM      2  O   GLY A   2      37.072  13.243  23.517  0.00  0.00    -0.273 OA
ATOM      3  N   VAL A   3      36.633  15.405  23.073  0.00  0.00    -0.297 N 
ATOM      4  H   VAL A   3      37.011  16.298  22.696  0.00  0.00    +0.150 HD
ENDROOT
BRANCH   1   5
ATOM      5  CA  GLY A   2      38.934  14.753  23.369  0.00  0.00    +0.176 C 
BRANCH   5   8
ATOM      6  C   ASN A   1      40.015  13.217  24.912  0.00  0.00    +0.239 C 
ATOM      7  O   ASN A   1      39.972  13.994  25.868  0.00  0.00    -0.274 OA
ATOM      8  N   GLY A   2      39.676  13.550  23.673  0.00  0.00    -0.296 N 
ATOM      9  H   GLY A   2      39.954  12.922  22.892  0.00  0.00    +0.150 HD
BRANCH   6  10
ATOM     10  CA  ASN A   1      40.497  11.788  25.081  0.00  0.00    +0.154 C 
BRANCH  10  11
ATOM     11  N   ASN A   1      41.501  11.646  26.109  0.00  0.00    -0.238 NA
ATOM     12  H   ASN A   1      41.323  12.009  27.067  0.00  0.00    +0.142 HD
ENDBRANCH  10  11
BRANCH  10  13
ATOM     13  CB  ASN A   1      39.318  10.834  25.322  0.00  0.00    +0.111 C 
BRANCH  13  14
ATOM     14  CG  ASN A   1      38.417  11.291  26.448  0.00  0.00    +0.221 C 
ATOM     15  OD1 ASN A   1      38.723  11.093  27.618  0.00  0.00    -0.275 OA
ATOM     16  ND2 ASN A   1      37.292  11.896  26.096  0.00  0.00    -0.329 N 
ATOM     17 HD21 ASN A   1      36.628  12.224  26.826  0.00  0.00    +0.145 HD
ATOM     18 HD22 ASN A   1      37.073  12.043  25.090  0.00  0.00    +0.145 HD
ENDBRANCH  13  14
ENDBRANCH  10  13
ENDBRANCH   6  10
ENDBRANCH   5   8
ENDBRANCH   1   5
BRANCH   3  19
ATOM     19  CA  VAL A   3      35.191  15.274  23.312  0.00  0.00    +0.149 C 
BRANCH  19  20
ATOM     20  C   VAL A   3      34.346  15.350  22.042  0.00  0.00    +0.241 C 
ATOM     21  O   VAL A   3      33.118  15.347  22.100  0.00  0.00    -0.273 OA
ATOM     22  N   ALA A   4      35.025  15.408  20.900  0.00  0.00    -0.298 N 
ATOM     23  H   ALA A   4      36.059  15.510  20.949  0.00  0.00    +0.150 HD
BRANCH  22  24
ATOM     24  CA  ALA A   4      34.401  15.337  19.581  0.00  0.00    +0.137 C 
ATOM     25  CB  ALA A   4      33.717  16.640  19.229  0.00  0.00    +0.030 C 
BRANCH  24  26
ATOM     26  C   ALA A   4      35.515  15.042  18.596  0.00  0.00    +0.227 C 
ATOM     27  O   ALA A   4      36.669  15.390  18.847  0.00  0.00    -0.286 OA
ENDBRANCH  24  26
ENDBRANCH  22  24
ENDBRANCH  19  20
BRANCH  19  28
ATOM     28  CB  VAL A   3      34.715  16.281  24.387  0.00  0.00    +0.027 C 
ATOM     29  CG2 VAL A   3      35.235  15.849  25.758  0.00  0.00    +0.002 C 
ATOM     30  CG1 VAL A   3      35.193  17.690  24.068  0.00  0.00    +0.002 C 
ENDBRANCH  19  28
ENDBRANCH   3  19
TORSDOF 11
REMARK  Name = ../refined-set-2016/3g2i/3g2i_pocket.pdb
REMARK  248 active torsions:
REMARK  status: ('A' for Active; 'I' for Inactive)
REMARK    1  A    between atoms: _1  and  _3
REMARK    2  A    between atoms: _3  and  _4
REMARK    3  A    between atoms: _3  and  _6
REMARK    4  A    between atoms: _6  and  _7
REMARK    5  A    between atoms: _12  and  _13
REMARK    6  A    between atoms: _15  and  _17
REMARK    7  A    between atoms: _17  and  _18
REMARK    8  A    between atoms: _17  and  _20
REMARK    9  A    between atoms: _20  and  _21
REMARK   10  A    between atoms: _21  and  _22
REMARK   11  A    between atoms: _25  and  _27
REMARK   12  A    between atoms: _27  and  _28
REMARK   13  A    between atoms: _27  and  _30
REMARK   14  A    between atoms: _30  and  _31
REMARK   15  A    between atoms: _36  and  _38
REMARK   16  A    between atoms: _38  and  _39
REMARK   17  A    between atoms: _41  and  _43
REMARK   18  A    between atoms: _43  and  _44
REMARK   19  A    between atoms: _46  and  _48
REMARK   20  A    between atoms: _48  and  _49
REMARK   21  A    between atoms: _48  and  _51
REMARK   22  A    between atoms: _51  and  _52
REMARK   23  A    between atoms: _55  and  _57
REMARK   24  A    between atoms: _57  and  _58
REMARK   25  A    between atoms: _60  and  _62
REMARK   26  A    between atoms: _62  and  _63
REMARK   27  A    between atoms: _62  and  _65
REMARK   28  A    between atoms: _65  and  _66
REMARK   29  A    between atoms: _66  and  _67
REMARK   30  A    between atoms: _67  and  _68
REMARK   31  A    between atoms: _77  and  _79
REMARK   32  A    between atoms: _79  and  _80
REMARK   33  A    between atoms: _79  and  _82
REMARK   34  A    between atoms: _82  and  _83
REMARK   35  A    between atoms: _86  and  _88
REMARK   36  A    between atoms: _88  and  _89
REMARK   37  A    between atoms: _92  and  _94
REMARK   38  A    between atoms: _94  and  _95
REMARK   39  A    between atoms: _94  and  _97
REMARK   40  A    between atoms: _97  and  _98
REMARK   41  A    between atoms: _104  and  _106
REMARK   42  A    between atoms: _106  and  _107
REMARK   43  A    between atoms: _106  and  _109
REMARK   44  A    between atoms: _109  and  _110
REMARK   45  A    between atoms: _115  and  _117
REMARK   46  A    between atoms: _117  and  _118
REMARK   47  A    between atoms: _117  and  _120
REMARK   48  A    between atoms: _120  and  _121
REMARK   49  A    between atoms: _124  and  _126
REMARK   50  A    between atoms: _126  and  _127
REMARK   51  A    between atoms: _126  and  _129
REMARK   52  A    between atoms: _129  and  _130
REMARK   53  A    between atoms: _135  and  _137
REMARK   54  A    between atoms: _137  and  _138
REMARK   55  A    between atoms: _137  and  _140
REMARK   56  A    between atoms: _140  and  _141
REMARK   57  A    between atoms: _147  and  _149
REMARK   58  A    between atoms: _149  and  _150
REMARK   59  A    between atoms: _149  and  _152
REMARK   60  A    between atoms: _152  and  _153
REMARK   61  A    between atoms: _159  and  _161
REMARK   62  A    between atoms: _161  and  _162
REMARK   63  A    between atoms: _161  and  _164
REMARK   64  A    between atoms: _164  and  _165
REMARK   65  A    between atoms: _165  and  _166
REMARK   66  A    between atoms: _166  and  _167
REMARK   67  A    between atoms: _176  and  _178
REMARK   68  A    between atoms: _178  and  _179
REMARK   69  A    between atoms: _178  and  _181
REMARK   70  A    between atoms: _181  and  _182
REMARK   71  A    between atoms: _187  and  _189
REMARK   72  A    between atoms: _189  and  _190
REMARK   73  A    between atoms: _189  and  _192
REMARK   74  A    between atoms: _192  and  _193
REMARK   75  A    between atoms: _196  and  _198
REMARK   76  A    between atoms: _198  and  _199
REMARK   77  A    between atoms: _198  and  _201
REMARK   78  A    between atoms: _201  and  _202
REMARK   79  A    between atoms: _205  and  _207
REMARK   80  A    between atoms: _207  and  _208
REMARK   81  A    between atoms: _207  and  _210
REMARK   82  A    between atoms: _210  and  _211
REMARK   83  A    between atoms: _216  and  _218
REMARK   84  A    between atoms: _218  and  _219
REMARK   85  A    between atoms: _218  and  _221
REMARK   86  A    between atoms: _221  and  _222
REMARK   87  A    between atoms: _227  and  _228
REMARK   88  A    between atoms: _230  and  _232
REMARK   89  A    between atoms: _232  and  _233
REMARK   90  A    between atoms: _232  and  _235
REMARK   91  A    between atoms: _235  and  _236
REMARK   92  A    between atoms: _239  and  _241
REMARK   93  A    between atoms: _241  and  _242
REMARK   94  A    between atoms: _241  and  _244
REMARK   95  A    between atoms: _244  and  _245
REMARK   96  A    between atoms: _250  and  _252
REMARK   97  A    between atoms: _252  and  _253
REMARK   98  A    between atoms: _252  and  _255
REMARK   99  A    between atoms: _255  and  _256
REMARK  100  A    between atoms: _261  and  _263
REMARK  101  A    between atoms: _263  and  _264
REMARK  102  A    between atoms: _263  and  _266
REMARK  103  A    between atoms: _266  and  _267
REMARK  104  A    between atoms: _270  and  _272
REMARK  105  A    between atoms: _272  and  _273
REMARK  106  A    between atoms: _272  and  _275
REMARK  107  A    between atoms: _278  and  _280
REMARK  108  A    between atoms: _280  and  _281
REMARK  109  A    between atoms: _280  and  _283
REMARK  110  A    between atoms: _283  and  _284
REMARK  111  A    between atoms: _287  and  _289
REMARK  112  A    between atoms: _289  and  _290
REMARK  113  A    between atoms: _289  and  _292
REMARK  114  A    between atoms: _292  and  _293
REMARK  115  A    between atoms: _293  and  _294
REMARK  116  A    between atoms: _297  and  _299
REMARK  117  A    between atoms: _299  and  _300
REMARK  118  A    between atoms: _303  and  _305
REMARK  119  A    between atoms: _305  and  _306
REMARK  120  A    between atoms: _305  and  _308
REMARK  121  A    between atoms: _308  and  _309
REMARK  122  A    between atoms: _312  and  _314
REMARK  123  A    between atoms: _314  and  _315
REMARK  124  A    between atoms: _314  and  _317
REMARK  125  A    between atoms: _317  and  _318
REMARK  126  A    between atoms: _318  and  _319
REMARK  127  A    between atoms: _322  and  _324
REMARK  128  A    between atoms: _324  and  _325
REMARK  129  A    between atoms: _324  and  _327
REMARK  130  A    between atoms: _327  and  _328
REMARK  131  A    between atoms: _333  and  _335
REMARK  132  A    between atoms: _335  and  _336
REMARK  133  A    between atoms: _338  and  _340
REMARK  134  A    between atoms: _340  and  _341
REMARK  135  A    between atoms: _340  and  _343
REMARK  136  A    between atoms: _346  and  _348
REMARK  137  A    between atoms: _348  and  _349
REMARK  138  A    between atoms: _352  and  _354
REMARK  139  A    between atoms: _354  and  _355
REMARK  140  A    between atoms: _354  and  _357
REMARK  141  A    between atoms: _357  and  _358
REMARK  142  A    between atoms: _363  and  _365
REMARK  143  A    between atoms: _365  and  _366
REMARK  144  A    between atoms: _365  and  _368
REMARK  145  A    between atoms: _368  and  _369
REMARK  146  A    between atoms: _369  and  _370
REMARK  147  A    between atoms: _370  and  _371
REMARK  148  A    between atoms: _371  and  _372
REMARK  149  A    between atoms: _376  and  _378
REMARK  150  A    between atoms: _378  and  _379
REMARK  151  A    between atoms: _378  and  _381
REMARK  152  A    between atoms: _381  and  _382
REMARK  153  A    between atoms: _385  and  _387
REMARK  154  A    between atoms: _387  and  _388
REMARK  155  A    between atoms: _387  and  _390
REMARK  156  A    between atoms: _390  and  _391
REMARK  157  A    between atoms: _396  and  _398
REMARK  158  A    between atoms: _398  and  _399
REMARK  159  A    between atoms: _401  and  _403
REMARK  160  A    between atoms: _403  and  _404
REMARK  161  A    between atoms: _403  and  _406
REMARK  162  A    between atoms: _406  and  _407
REMARK  163  A    between atoms: _407  and  _408
REMARK  164  A    between atoms: _408  and  _409
REMARK  165  A    between atoms: _409  and  _410
REMARK  166  A    between atoms: _414  and  _416
REMARK  167  A    between atoms: _416  and  _417
REMARK  168  A    between atoms: _416  and  _419
REMARK  169  A    between atoms: _419  and  _420
REMARK  170  A    between atoms: _420  and  _421
REMARK  171  A    between atoms: _421  and  _422
REMARK  172  A    between atoms: _431  and  _433
REMARK  173  A    between atoms: _433  and  _434
REMARK  174  A    between atoms: _433  and  _436
REMARK  175  A    between atoms: _436  and  _437
REMARK  176  A    between atoms: _442  and  _444
REMARK  177  A    between atoms: _444  and  _445
REMARK  178  A    between atoms: _444  and  _447
REMARK  179  A    between atoms: _447  and  _448
REMARK  180  A    between atoms: _453  and  _454
REMARK  181  A    between atoms: _456  and  _458
REMARK  182  A    between atoms: _458  and  _459
REMARK  183  A    between atoms: _458  and  _461
REMARK  184  A    between atoms: _461  and  _462
REMARK  185  A    between atoms: _462  and  _463
REMARK  186  A    between atoms: _463  and  _464
REMARK  187  A    between atoms: _464  and  _465
REMARK  188  A    between atoms: _469  and  _471
REMARK  189  A    between atoms: _471  and  _472
REMARK  190  A    between atoms: _471  and  _474
REMARK  191  A    between atoms: _474  and  _475
REMARK  192  A    between atoms: _477  and  _479
REMARK  193  A    between atoms: _479  and  _480
REMARK  194  A    between atoms: _479  and  _482
REMARK  195  A    between atoms: _482  and  _483
REMARK  196  A    between atoms: _486  and  _488
REMARK  197  A    between atoms: _488  and  _489
REMARK  198  A    between atoms: _488  and  _491
REMARK  199  A    between atoms: _491  and  _492
REMARK  200  A    between atoms: _492  and  _493
REMARK  201  A    between atoms: _496  and  _498
REMARK  202  A    between atoms: _498  and  _499
REMARK  203  A    between atoms: _502  and  _504
REMARK  204  A    between atoms: _504  and  _505
REMARK  205  A    between atoms: _504  and  _507
REMARK  206  A    between atoms: _507  and  _508
REMARK  207  A    between atoms: _510  and  _512
REMARK  208  A    between atoms: _512  and  _513
REMARK  209  A    between atoms: _515  and  _517
REMARK  210  A    between atoms: _517  and  _518
REMARK  211  A    between atoms: _517  and  _520
REMARK  212  A    between atoms: _520  and  _521
REMARK  213  A    between atoms: _524  and  _526
REMARK  214  A    between atoms: _526  and  _527
REMARK  215  A    between atoms: _529  and  _531
REMARK  216  A    between atoms: _531  and  _532
REMARK  217  A    between atoms: _531  and  _534
REMARK  218  A    between atoms: _534  and  _535
REMARK  219  A    between atoms: _540  and  _542
REMARK  220  A    between atoms: _542  and  _543
REMARK  221  A    between atoms: _542  and  _545
REMARK  222  A    between atoms: _545  and  _546
REMARK  223  A    between atoms: _546  and  _547
REMARK  224  A    between atoms: _554  and  _555
REMARK  225  A    between atoms: _555  and  _571
REMARK  226  A    between atoms: _556  and  _558
REMARK  227  A    between atoms: _558  and  _559
REMARK  228  A    between atoms: _559  and  _560
REMARK  229  A    between atoms: _564  and  _566
REMARK  230  A    between atoms: _566  and  _567
REMARK  231  A    between atoms: _566  and  _574
REMARK  232  A    between atoms: _567  and  _568
REMARK  233  A    between atoms: _568  and  _569
REMARK  234  A    between atoms: _569  and  _570
REMARK  235  A    between atoms: _570  and  _571
REMARK  236  A    between atoms: _576  and  _578
REMARK  237  A    between atoms: _578  and  _579
REMARK  238  A    between atoms: _578  and  _581
REMARK  239  A    between atoms: _581  and  _582
REMARK  240  A    between atoms: _585  and  _587
REMARK  241  A    between atoms: _587  and  _588
REMARK  242  A    between atoms: _590  and  _592
REMARK  243  A    between atoms: _592  and  _593
REMARK  244  A    between atoms: _596  and  _598
REMARK  245  A    between atoms: _598  and  _599
REMARK  246  A    between atoms: _598  and  _601
REMARK  247  A    between atoms: _601  and  _602
REMARK  248  A    between atoms: _607  and  _608
REMARK                            x       y       z     vdW  Elec       q    Type
REMARK                         _______ _______ _______ _____ _____    ______ ____
ROOT
ATOM      1  CB  HIS A   1      37.660  18.382  19.953  0.00  0.00    +0.072 C 
ENDROOT
BRANCH   1   2
ATOM      2  CG  HIS A   1      38.355  18.591  21.260  0.00  0.00    +0.082 A 
ATOM      3  CD2 HIS A   1      38.314  17.880  22.410  0.00  0.00    +0.115 A 
ATOM      4  NE2 HIS A   1      39.141  18.510  23.306  0.00  0.00    -0.221 NA
ATOM      5  CE1 HIS A   1      39.671  19.573  22.727  0.00  0.00    +0.199 A 
ATOM      6  ND1 HIS A   1      39.210  19.647  21.492  0.00  0.00    -0.227 NA
ENDBRANCH   1   2
BRANCH   1   7
ATOM      7  CA  HIS A   1      38.608  18.235  18.760  0.00  0.00    +0.139 C 
BRANCH   7   8
ATOM      8  N   HIS A   1      37.876  17.774  17.599  0.00  0.00    -0.239 NA
ATOM      9  H   HIS A   1      36.903  17.431  17.729  0.00  0.00    +0.142 HD
ENDBRANCH   7   8
BRANCH   7  10
ATOM     10  C   HIS A   1      39.753  17.276  19.068  0.00  0.00    +0.224 C 
ATOM     11  O   HIS A   1      40.889  17.706  19.234  0.00  0.00    -0.287 OA
ENDBRANCH   7  10
ENDBRANCH   1   7
TORSDOF 4
REMARK  Name = ../refined-set-2016/3g2i/3g2i_pocket.pdb
REMARK  248 active torsions:
REMARK  status: ('A' for Active; 'I' for Inactive)
REMARK    1  A    between atoms: _1  and  _3
REMARK    2  A    between atoms: _3  and  _4
REMARK    3  A    between atoms: _3  and  _6
REMARK    4  A    between atoms: _6  and  _7
REMARK    5  A    between atoms: _12  and  _13
REMARK    6  A    between atoms: _15  and  _17
REMARK    7  A    between atoms: _17  and  _18
REMARK    8  A    between atoms: _17  and  _20
REMARK    9  A    between atoms: _20  and  _21
REMARK   10  A    between atoms: _21  and  _22
REMARK   11  A    between atoms: _25  and  _27
REMARK   12  A    between atoms: _27  and  _28
REMARK   13  A    between atoms: _27  and  _30
REMARK   14  A    between atoms: _30  and  _31
REMARK   15  A    between atoms: _36  and  _38
REMARK   16  A    between atoms: _38  and  _39
REMARK   17  A    between atoms: _41  and  _43
REMARK   18  A    between atoms: _43  and  _44
REMARK   19  A    between atoms: _46  and  _48
REMARK   20  A    between atoms: _48  and  _49
REMARK   21  A    between atoms: _48  and  _51
REMARK   22  A    between atoms: _51  and  _52
REMARK   23  A    between atoms: _55  and  _57
REMARK   24  A    between atoms: _57  and  _58
REMARK   25  A    between atoms: _60  and  _62
REMARK   26  A    between atoms: _62  and  _63
REMARK   27  A    between atoms: _62  and  _65
REMARK   28  A    between atoms: _65  and  _66
REMARK   29  A    between atoms: _66  and  _67
REMARK   30  A    between atoms: _67  and  _68
REMARK   31  A    between atoms: _77  and  _79
REMARK   32  A    between atoms: _79  and  _80
REMARK   33  A    between atoms: _79  and  _82
REMARK   34  A    between atoms: _82  and  _83
REMARK   35  A    between atoms: _86  and  _88
REMARK   36  A    between atoms: _88  and  _89
REMARK   37  A    between atoms: _92  and  _94
REMARK   38  A    between atoms: _94  and  _95
REMARK   39  A    between atoms: _94  and  _97
REMARK   40  A    between atoms: _97  and  _98
REMARK   41  A    between atoms: _104  and  _106
REMARK   42  A    between atoms: _106  and  _107
REMARK   43  A    between atoms: _106  and  _109
REMARK   44  A    between atoms: _109  and  _110
REMARK   45  A    between atoms: _115  and  _117
REMARK   46  A    between atoms: _117  and  _118
REMARK   47  A    between atoms: _117  and  _120
REMARK   48  A    between atoms: _120  and  _121
REMARK   49  A    between atoms: _124  and  _126
REMARK   50  A    between atoms: _126  and  _127
REMARK   51  A    between atoms: _126  and  _129
REMARK   52  A    between atoms: _129  and  _130
REMARK   53  A    between atoms: _135  and  _137
REMARK   54  A    between atoms: _137  and  _138
REMARK   55  A    between atoms: _137  and  _140
REMARK   56  A    between atoms: _140  and  _141
REMARK   57  A    between atoms: _147  and  _149
REMARK   58  A    between atoms: _149  and  _150
REMARK   59  A    between atoms: _149  and  _152
REMARK   60  A    between atoms: _152  and  _153
REMARK   61  A    between atoms: _159  and  _161
REMARK   62  A    between atoms: _161  and  _162
REMARK   63  A    between atoms: _161  and  _164
REMARK   64  A    between atoms: _164  and  _165
REMARK   65  A    between atoms: _165  and  _166
REMARK   66  A    between atoms: _166  and  _167
REMARK   67  A    between atoms: _176  and  _178
REMARK   68  A    between atoms: _178  and  _179
REMARK   69  A    between atoms: _178  and  _181
REMARK   70  A    between atoms: _181  and  _182
REMARK   71  A    between atoms: _187  and  _189
REMARK   72  A    between atoms: _189  and  _190
REMARK   73  A    between atoms: _189  and  _192
REMARK   74  A    between atoms: _192  and  _193
REMARK   75  A    between atoms: _196  and  _198
REMARK   76  A    between atoms: _198  and  _199
REMARK   77  A    between atoms: _198  and  _201
REMARK   78  A    between atoms: _201  and  _202
REMARK   79  A    between atoms: _205  and  _207
REMARK   80  A    between atoms: _207  and  _208
REMARK   81  A    between atoms: _207  and  _210
REMARK   82  A    between atoms: _210  and  _211
REMARK   83  A    between atoms: _216  and  _218
REMARK   84  A    between atoms: _218  and  _219
REMARK   85  A    between atoms: _218  and  _221
REMARK   86  A    between atoms: _221  and  _222
REMARK   87  A    between atoms: _227  and  _228
REMARK   88  A    between atoms: _230  and  _232
REMARK   89  A    between atoms: _232  and  _233
REMARK   90  A    between atoms: _232  and  _235
REMARK   91  A    between atoms: _235  and  _236
REMARK   92  A    between atoms: _239  and  _241
REMARK   93  A    between atoms: _241  and  _242
REMARK   94  A    between atoms: _241  and  _244
REMARK   95  A    between atoms: _244  and  _245
REMARK   96  A    between atoms: _250  and  _252
REMARK   97  A    between atoms: _252  and  _253
REMARK   98  A    between atoms: _252  and  _255
REMARK   99  A    between atoms: _255  and  _256
REMARK  100  A    between atoms: _261  and  _263
REMARK  101  A    between atoms: _263  and  _264
REMARK  102  A    between atoms: _263  and  _266
REMARK  103  A    between atoms: _266  and  _267
REMARK  104  A    between atoms: _270  and  _272
REMARK  105  A    between atoms: _272  and  _273
REMARK  106  A    between atoms: _272  and  _275
REMARK  107  A    between atoms: _278  and  _280
REMARK  108  A    between atoms: _280  and  _281
REMARK  109  A    between atoms: _280  and  _283
REMARK  110  A    between atoms: _283  and  _284
REMARK  111  A    between atoms: _287  and  _289
REMARK  112  A    between atoms: _289  and  _290
REMARK  113  A    between atoms: _289  and  _292
REMARK  114  A    between atoms: _292  and  _293
REMARK  115  A    between atoms: _293  and  _294
REMARK  116  A    between atoms: _297  and  _299
REMARK  117  A    between atoms: _299  and  _300
REMARK  118  A    between atoms: _303  and  _305
REMARK  119  A    between atoms: _305  and  _306
REMARK  120  A    between atoms: _305  and  _308
REMARK  121  A    between atoms: _308  and  _309
REMARK  122  A    between atoms: _312  and  _314
REMARK  123  A    between atoms: _314  and  _315
REMARK  124  A    between atoms: _314  and  _317
REMARK  125  A    between atoms: _317  and  _318
REMARK  126  A    between atoms: _318  and  _319
REMARK  127  A    between atoms: _322  and  _324
REMARK  128  A    between atoms: _324  and  _325
REMARK  129  A    between atoms: _324  and  _327
REMARK  130  A    between atoms: _327  and  _328
REMARK  131  A    between atoms: _333  and  _335
REMARK  132  A    between atoms: _335  and  _336
REMARK  133  A    between atoms: _338  and  _340
REMARK  134  A    between atoms: _340  and  _341
REMARK  135  A    between atoms: _340  and  _343
REMARK  136  A    between atoms: _346  and  _348
REMARK  137  A    between atoms: _348  and  _349
REMARK  138  A    between atoms: _352  and  _354
REMARK  139  A    between atoms: _354  and  _355
REMARK  140  A    between atoms: _354  and  _357
REMARK  141  A    between atoms: _357  and  _358
REMARK  142  A    between atoms: _363  and  _365
REMARK  143  A    between atoms: _365  and  _366
REMARK  144  A    between atoms: _365  and  _368
REMARK  145  A    between atoms: _368  and  _369
REMARK  146  A    between atoms: _369  and  _370
REMARK  147  A    between atoms: _370  and  _371
REMARK  148  A    between atoms: _371  and  _372
REMARK  149  A    between atoms: _376  and  _378
REMARK  150  A    between atoms: _378  and  _379
REMARK  151  A    between atoms: _378  and  _381
REMARK  152  A    between atoms: _381  and  _382
REMARK  153  A    between atoms: _385  and  _387
REMARK  154  A    between atoms: _387  and  _388
REMARK  155  A    between atoms: _387  and  _390
REMARK  156  A    between atoms: _390  and  _391
REMARK  157  A    between atoms: _396  and  _398
REMARK  158  A    between atoms: _398  and  _399
REMARK  159  A    between atoms: _401  and  _403
REMARK  160  A    between atoms: _403  and  _404
REMARK  161  A    between atoms: _403  and  _406
REMARK  162  A    between atoms: _406  and  _407
REMARK  163  A    between atoms: _407  and  _408
REMARK  164  A    between atoms: _408  and  _409
REMARK  165  A    between atoms: _409  and  _410
REMARK  166  A    between atoms: _414  and  _416
REMARK  167  A    between atoms: _416  and  _417
REMARK  168  A    between atoms: _416  and  _419
REMARK  169  A    between atoms: _419  and  _420
REMARK  170  A    between atoms: _420  and  _421
REMARK  171  A    between atoms: _421  and  _422
REMARK  172  A    between atoms: _431  and  _433
REMARK  173  A    between atoms: _433  and  _434
REMARK  174  A    between atoms: _433  and  _436
REMARK  175  A    between atoms: _436  and  _437
REMARK  176  A    between atoms: _442  and  _444
REMARK  177  A    between atoms: _444  and  _445
REMARK  178  A    between atoms: _444  and  _447
REMARK  179  A    between atoms: _447  and  _448
REMARK  180  A    between atoms: _453  and  _454
REMARK  181  A    between atoms: _456  and  _458
REMARK  182  A    between atoms: _458  and  _459
REMARK  183  A    between atoms: _458  and  _461
REMARK  184  A    between atoms: _461  and  _462
REMARK  185  A    between atoms: _462  and  _463
REMARK  186  A    between atoms: _463  and  _464
REMARK  187  A    between atoms: _464  and  _465
REMARK  188  A    between atoms: _469  and  _471
REMARK  189  A    between atoms: _471  and  _472
REMARK  190  A    between atoms: _471  and  _474
REMARK  191  A    between atoms: _474  and  _475
REMARK  192  A    between atoms: _477  and  _479
REMARK  193  A    between atoms: _479  and  _480
REMARK  194  A    between atoms: _479  and  _482
REMARK  195  A    between atoms: _482  and  _483
REMARK  196  A    between atoms: _486  and  _488
REMARK  197  A    between atoms: _488  and  _489
REMARK  198  A    between atoms: _488  and  _491
REMARK  199  A    between atoms: _491  and  _492
REMARK  200  A    between atoms: _492  and  _493
REMARK  201  A    between atoms: _496  and  _498
REMARK  202  A    between atoms: _498  and  _499
REMARK  203  A    between atoms: _502  and  _504
REMARK  204  A    between atoms: _504  and  _505
REMARK  205  A    between atoms: _504  and  _507
REMARK  206  A    between atoms: _507  and  _508
REMARK  207  A    between atoms: _510  and  _512
REMARK  208  A    between atoms: _512  and  _513
REMARK  209  A    between atoms: _515  and  _517
REMARK  210  A    between atoms: _517  and  _518
REMARK  211  A    between atoms: _517  and  _520
REMARK  212  A    between atoms: _520  and  _521
REMARK  213  A    between atoms: _524  and  _526
REMARK  214  A    between atoms: _526  and  _527
REMARK  215  A    between atoms: _529  and  _531
REMARK  216  A    between atoms: _531  and  _532
REMARK  217  A    between atoms: _531  and  _534
REMARK  218  A    between atoms: _534  and  _535
REMARK  219  A    between atoms: _540  and  _542
REMARK  220  A    between atoms: _542  and  _543
REMARK  221  A    between atoms: _542  and  _545
REMARK  222  A    between atoms: _545  and  _546
REMARK  223  A    between atoms: _546  and  _547
REMARK  224  A    between atoms: _554  and  _555
REMARK  225  A    between atoms: _555  and  _571
REMARK  226  A    between atoms: _556  and  _558
REMARK  227  A    between atoms: _558  and  _559
REMARK  228  A    between atoms: _559  and  _560
REMARK  229  A    between atoms: _564  and  _566
REMARK  230  A    between atoms: _566  and  _567
REMARK  231  A    between atoms: _566  and  _574
REMARK  232  A    between atoms: _567  and  _568
REMARK  233  A    between atoms: _568  and  _569
REMARK  234  A    between atoms: _569  and  _570
REMARK  235  A    between atoms: _570  and  _571
REMARK  236  A    between atoms: _576  and  _578
REMARK  237  A    between atoms: _578  and  _579
REMARK  238  A    between atoms: _578  and  _581
REMARK  239  A    between atoms: _581  and  _582
REMARK  240  A    between atoms: _585  and  _587
REMARK  241  A    between atoms: _587  and  _588
REMARK  242  A    between atoms: _590  and  _592
REMARK  243  A    between atoms: _592  and  _593
REMARK  244  A    between atoms: _596  and  _598
REMARK  245  A    between atoms: _598  and  _599
REMARK  246  A    between atoms: _598  and  _601
REMARK  247  A    between atoms: _601  and  _602
REMARK  248  A    between atoms: _607  and  _608
REMARK                            x       y       z     vdW  Elec       q    Type
REMARK                         _______ _______ _______ _____ _____    ______ ____
ROOT
ATOM      1  CA  THR A   2      32.322  12.274  21.314  0.00  0.00    +0.176 C 
ENDROOT
BRANCH   1   4
ATOM      2  C   LYS A   1      33.975  11.250  22.756  0.00  0.00    +0.238 C 
ATOM      3  O   LYS A   1      33.923  12.181  23.560  0.00  0.00    -0.274 OA
ATOM      4  N   THR A   2      33.251  11.208  21.647  0.00  0.00    -0.295 N 
ATOM      5  H   THR A   2      33.350  10.397  21.003  0.00  0.00    +0.150 HD
BRANCH   2   6
ATOM      6  CA  LYS A   1      34.921  10.085  22.972  0.00  0.00    +0.145 C 
BRANCH   6   7
ATOM      7  N   LYS A   1      36.210  10.492  22.429  0.00  0.00    -0.238 NA
ATOM      8  H   LYS A   1      36.557  11.454  22.619  0.00  0.00    +0.142 HD
ENDBRANCH   6   7
BRANCH   6   9
ATOM      9  CB  LYS A   1      35.019   9.733  24.460  0.00  0.00    +0.026 C 
BRANCH   9  10
ATOM     10  CG  LYS A   1      35.931   8.565  24.791  0.00  0.00    -0.000 C 
BRANCH  10  11
ATOM     11  CD  LYS A   1      35.326   7.230  24.381  0.00  0.00    -0.024 C 
BRANCH  11  12
ATOM     12  CE  LYS A   1      36.374   6.128  24.415  0.00  0.00    -0.086 C 
BRANCH  12  13
ATOM     13  NZ  LYS A   1      37.261   6.156  23.220  0.00  0.00    +0.380 N 
ATOM     14  HZ1 LYS A   1      37.958   5.387  23.289  0.00  0.00    -0.089 HD
ATOM     15  HZ2 LYS A   1      37.755   7.070  23.178  0.00  0.00    -0.089 HD
ATOM     16  HZ3 LYS A   1      36.688   6.030  22.361  0.00  0.00    -0.089 HD
ENDBRANCH  12  13
ENDBRANCH  11  12
ENDBRANCH  10  11
ENDBRANCH   9  10
ENDBRANCH   6   9
ENDBRANCH   2   6
ENDBRANCH   1   4
BRANCH   1  17
ATOM     17  C   THR A   2      31.260  12.370  22.403  0.00  0.00    +0.243 C 
ATOM     18  N   ASN A   3      31.046  13.593  22.876  0.00  0.00    -0.297 N 
ATOM     19  H   ASN A   3      31.592  14.380  22.471  0.00  0.00    +0.150 HD
ATOM     20  O   THR A   2      30.675  11.357  22.810  0.00  0.00    -0.273 OA
BRANCH  18  21
ATOM     21  CA  ASN A   3      30.090  13.889  23.929  0.00  0.00    +0.158 C 
BRANCH  21  22
ATOM     22  C   ASN A   3      28.687  13.417  23.579  0.00  0.00    +0.241 C 
ATOM     23  N   GLY A   4      27.838  13.368  24.595  0.00  0.00    -0.296 N 
ATOM     24  H   GLY A   4      28.185  13.582  25.552  0.00  0.00    +0.150 HD
ATOM     25  O   ASN A   3      28.387  13.106  22.429  0.00  0.00    -0.273 OA
BRANCH  23  26
ATOM     26  CA  GLY A   4      26.445  13.026  24.416  0.00  0.00    +0.163 C 
BRANCH  26  27
ATOM     27  C   GLY A   4      25.622  13.714  25.476  0.00  0.00    +0.229 C 
ATOM     28  O   GLY A   4      26.159  14.375  26.366  0.00  0.00    -0.286 OA
ENDBRANCH  26  27
ENDBRANCH  23  26
ENDBRANCH  21  22
BRANCH  21  29
ATOM     29  CB  ASN A   3      30.070  15.397  24.222  0.00  0.00    +0.114 C 
BRANCH  29  30
ATOM     30  CG  ASN A   3      31.221  15.841  25.124  0.00  0.00    +0.222 C 
ATOM     31  ND2 ASN A   3      31.919  14.879  25.708  0.00  0.00    -0.329 N 
ATOM     32 HD21 ASN A   3      32.707  15.120  26.342  0.00  0.00    +0.145 HD
ATOM     33 HD22 ASN A   3      31.679  13.882  25.533  0.00  0.00    +0.145 HD
ATOM     34  OD1 ASN A   3      31.467  17.046  25.300  0.00  0.00    -0.275 OA
ENDBRANCH  29  30
ENDBRANCH  21  29
ENDBRANCH  18  21
ENDBRANCH   1  17
BRANCH   1  35
ATOM     35  CB  THR A   2      31.685  12.054  19.926  0.00  0.00    +0.137 C 
ATOM     36  CG2 THR A   2      30.729  13.189  19.569  0.00  0.00    +0.034 C 
BRANCH  35  37
ATOM     37  OG1 THR A   2      32.727  11.994  18.944  0.00  0.00    -0.382 OA
ATOM     38  HG1 THR A   2      32.328  11.853  18.049  0.00  0.00    +0.210 HD
ENDBRANCH  35  37
ENDBRANCH   1  35
TORSDOF 17
REMARK  Name = ../refined-set-2016/3g2i/3g2i_pocket.pdb
REMARK  248 active torsions:
REMARK  status: ('A' for Active; 'I' for Inactive)
REMARK    1  A    between atoms: _1  and  _3
REMARK    2  A    between atoms: _3  and  _4
REMARK    3  A    between atoms: _3  and  _6
REMARK    4  A    between atoms: _6  and  _7
REMARK    5  A    between atoms: _12  and  _13
REMARK    6  A    between atoms: _15  and  _17
REMARK    7  A    between atoms: _17  and  _18
REMARK    8  A    between atoms: _17  and  _20
REMARK    9  A    between atoms: _20  and  _21
REMARK   10  A    between atoms: _21  and  _22
REMARK   11  A    between atoms: _25  and  _27
REMARK   12  A    between atoms: _27  and  _28
REMARK   13  A    between atoms: _27  and  _30
REMARK   14  A    between atoms: _30  and  _31
REMARK   15  A    between atoms: _36  and  _38
REMARK   16  A    between atoms: _38  and  _39
REMARK   17  A    between atoms: _41  and  _43
REMARK   18  A    between atoms: _43  and  _44
REMARK   19  A    between atoms: _46  and  _48
REMARK   20  A    between atoms: _48  and  _49
REMARK   21  A    between atoms: _48  and  _51
REMARK   22  A    between atoms: _51  and  _52
REMARK   23  A    between atoms: _55  and  _57
REMARK   24  A    between atoms: _57  and  _58
REMARK   25  A    between atoms: _60  and  _62
REMARK   26  A    between atoms: _62  and  _63
REMARK   27  A    between atoms: _62  and  _65
REMARK   28  A    between atoms: _65  and  _66
REMARK   29  A    between atoms: _66  and  _67
REMARK   30  A    between atoms: _67  and  _68
REMARK   31  A    between atoms: _77  and  _79
REMARK   32  A    between atoms: _79  and  _80
REMARK   33  A    between atoms: _79  and  _82
REMARK   34  A    between atoms: _82  and  _83
REMARK   35  A    between atoms: _86  and  _88
REMARK   36  A    between atoms: _88  and  _89
REMARK   37  A    between atoms: _92  and  _94
REMARK   38  A    between atoms: _94  and  _95
REMARK   39  A    between atoms: _94  and  _97
REMARK   40  A    between atoms: _97  and  _98
REMARK   41  A    between atoms: _104  and  _106
REMARK   42  A    between atoms: _106  and  _107
REMARK   43  A    between atoms: _106  and  _109
REMARK   44  A    between atoms: _109  and  _110
REMARK   45  A    between atoms: _115  and  _117
REMARK   46  A    between atoms: _117  and  _118
REMARK   47  A    between atoms: _117  and  _120
REMARK   48  A    between atoms: _120  and  _121
REMARK   49  A    between atoms: _124  and  _126
REMARK   50  A    between atoms: _126  and  _127
REMARK   51  A    between atoms: _126  and  _129
REMARK   52  A    between atoms: _129  and  _130
REMARK   53  A    between atoms: _135  and  _137
REMARK   54  A    between atoms: _137  and  _138
REMARK   55  A    between atoms: _137  and  _140
REMARK   56  A    between atoms: _140  and  _141
REMARK   57  A    between atoms: _147  and  _149
REMARK   58  A    between atoms: _149  and  _150
REMARK   59  A    between atoms: _149  and  _152
REMARK   60  A    between atoms: _152  and  _153
REMARK   61  A    between atoms: _159  and  _161
REMARK   62  A    between atoms: _161  and  _162
REMARK   63  A    between atoms: _161  and  _164
REMARK   64  A    between atoms: _164  and  _165
REMARK   65  A    between atoms: _165  and  _166
REMARK   66  A    between atoms: _166  and  _167
REMARK   67  A    between atoms: _176  and  _178
REMARK   68  A    between atoms: _178  and  _179
REMARK   69  A    between atoms: _178  and  _181
REMARK   70  A    between atoms: _181  and  _182
REMARK   71  A    between atoms: _187  and  _189
REMARK   72  A    between atoms: _189  and  _190
REMARK   73  A    between atoms: _189  and  _192
REMARK   74  A    between atoms: _192  and  _193
REMARK   75  A    between atoms: _196  and  _198
REMARK   76  A    between atoms: _198  and  _199
REMARK   77  A    between atoms: _198  and  _201
REMARK   78  A    between atoms: _201  and  _202
REMARK   79  A    between atoms: _205  and  _207
REMARK   80  A    between atoms: _207  and  _208
REMARK   81  A    between atoms: _207  and  _210
REMARK   82  A    between atoms: _210  and  _211
REMARK   83  A    between atoms: _216  and  _218
REMARK   84  A    between atoms: _218  and  _219
REMARK   85  A    between atoms: _218  and  _221
REMARK   86  A    between atoms: _221  and  _222
REMARK   87  A    between atoms: _227  and  _228
REMARK   88  A    between atoms: _230  and  _232
REMARK   89  A    between atoms: _232  and  _233
REMARK   90  A    between atoms: _232  and  _235
REMARK   91  A    between atoms: _235  and  _236
REMARK   92  A    between atoms: _239  and  _241
REMARK   93  A    between atoms: _241  and  _242
REMARK   94  A    between atoms: _241  and  _244
REMARK   95  A    between atoms: _244  and  _245
REMARK   96  A    between atoms: _250  and  _252
REMARK   97  A    between atoms: _252  and  _253
REMARK   98  A    between atoms: _252  and  _255
REMARK   99  A    between atoms: _255  and  _256
REMARK  100  A    between atoms: _261  and  _263
REMARK  101  A    between atoms: _263  and  _264
REMARK  102  A    between atoms: _263  and  _266
REMARK  103  A    between atoms: _266  and  _267
REMARK  104  A    between atoms: _270  and  _272
REMARK  105  A    between atoms: _272  and  _273
REMARK  106  A    between atoms: _272  and  _275
REMARK  107  A    between atoms: _278  and  _280
REMARK  108  A    between atoms: _280  and  _281
REMARK  109  A    between atoms: _280  and  _283
REMARK  110  A    between atoms: _283  and  _284
REMARK  111  A    between atoms: _287  and  _289
REMARK  112  A    between atoms: _289  and  _290
REMARK  113  A    between atoms: _289  and  _292
REMARK  114  A    between atoms: _292  and  _293
REMARK  115  A    between atoms: _293  and  _294
REMARK  116  A    between atoms: _297  and  _299
REMARK  117  A    between atoms: _299  and  _300
REMARK  118  A    between atoms: _303  and  _305
REMARK  119  A    between atoms: _305  and  _306
REMARK  120  A    between atoms: _305  and  _308
REMARK  121  A    between atoms: _308  and  _309
REMARK  122  A    between atoms: _312  and  _314
REMARK  123  A    between atoms: _314  and  _315
REMARK  124  A    between atoms: _314  and  _317
REMARK  125  A    between atoms: _317  and  _318
REMARK  126  A    between atoms: _318  and  _319
REMARK  127  A    between atoms: _322  and  _324
REMARK  128  A    between atoms: _324  and  _325
REMARK  129  A    between atoms: _324  and  _327
REMARK  130  A    between atoms: _327  and  _328
REMARK  131  A    between atoms: _333  and  _335
REMARK  132  A    between atoms: _335  and  _336
REMARK  133  A    between atoms: _338  and  _340
REMARK  134  A    between atoms: _340  and  _341
REMARK  135  A    between atoms: _340  and  _343
REMARK  136  A    between atoms: _346  and  _348
REMARK  137  A    between atoms: _348  and  _349
REMARK  138  A    between atoms: _352  and  _354
REMARK  139  A    between atoms: _354  and  _355
REMARK  140  A    between atoms: _354  and  _357
REMARK  141  A    between atoms: _357  and  _358
REMARK  142  A    between atoms: _363  and  _365
REMARK  143  A    between atoms: _365  and  _366
REMARK  144  A    between atoms: _365  and  _368
REMARK  145  A    between atoms: _368  and  _369
REMARK  146  A    between atoms: _369  and  _370
REMARK  147  A    between atoms: _370  and  _371
REMARK  148  A    between atoms: _371  and  _372
REMARK  149  A    between atoms: _376  and  _378
REMARK  150  A    between atoms: _378  and  _379
REMARK  151  A    between atoms: _378  and  _381
REMARK  152  A    between atoms: _381  and  _382
REMARK  153  A    between atoms: _385  and  _387
REMARK  154  A    between atoms: _387  and  _388
REMARK  155  A    between atoms: _387  and  _390
REMARK  156  A    between atoms: _390  and  _391
REMARK  157  A    between atoms: _396  and  _398
REMARK  158  A    between atoms: _398  and  _399
REMARK  159  A    between atoms: _401  and  _403
REMARK  160  A    between atoms: _403  and  _404
REMARK  161  A    between atoms: _403  and  _406
REMARK  162  A    between atoms: _406  and  _407
REMARK  163  A    between atoms: _407  and  _408
REMARK  164  A    between atoms: _408  and  _409
REMARK  165  A    between atoms: _409  and  _410
REMARK  166  A    between atoms: _414  and  _416
REMARK  167  A    between atoms: _416  and  _417
REMARK  168  A    between atoms: _416  and  _419
REMARK  169  A    between atoms: _419  and  _420
REMARK  170  A    between atoms: _420  and  _421
REMARK  171  A    between atoms: _421  and  _422
REMARK  172  A    between atoms: _431  and  _433
REMARK  173  A    between atoms: _433  and  _434
REMARK  174  A    between atoms: _433  and  _436
REMARK  175  A    between atoms: _436  and  _437
REMARK  176  A    between atoms: _442  and  _444
REMARK  177  A    between atoms: _444  and  _445
REMARK  178  A    between atoms: _444  and  _447
REMARK  179  A    between atoms: _447  and  _448
REMARK  180  A    between atoms: _453  and  _454
REMARK  181  A    between atoms: _456  and  _458
REMARK  182  A    between atoms: _458  and  _459
REMARK  183  A    between atoms: _458  and  _461
REMARK  184  A    between atoms: _461  and  _462
REMARK  185  A    between atoms: _462  and  _463
REMARK  186  A    between atoms: _463  and  _464
REMARK  187  A    between atoms: _464  and  _465
REMARK  188  A    between atoms: _469  and  _471
REMARK  189  A    between atoms: _471  and  _472
REMARK  190  A    between atoms: _471  and  _474
REMARK  191  A    between atoms: _474  and  _475
REMARK  192  A    between atoms: _477  and  _479
REMARK  193  A    between atoms: _479  and  _480
REMARK  194  A    between atoms: _479  and  _482
REMARK  195  A    between atoms: _482  and  _483
REMARK  196  A    between atoms: _486  and  _488
REMARK  197  A    between atoms: _488  and  _489
REMARK  198  A    between atoms: _488  and  _491
REMARK  199  A    between atoms: _491  and  _492
REMARK  200  A    between atoms: _492  and  _493
REMARK  201  A    between atoms: _496  and  _498
REMARK  202  A    between atoms: _498  and  _499
REMARK  203  A    between atoms: _502  and  _504
REMARK  204  A    between atoms: _504  and  _505
REMARK  205  A    between atoms: _504  and  _507
REMARK  206  A    between atoms: _507  and  _508
REMARK  207  A    between atoms: _510  and  _512
REMARK  208  A    between atoms: _512  and  _513
REMARK  209  A    between atoms: _515  and  _517
REMARK  210  A    between atoms: _517  and  _518
REMARK  211  A    between atoms: _517  and  _520
REMARK  212  A    between atoms: _520  and  _521
REMARK  213  A    between atoms: _524  and  _526
REMARK  214  A    between atoms: _526  and  _527
REMARK  215  A    between atoms: _529  and  _531
REMARK  216  A    between atoms: _531  and  _532
REMARK  217  A    between atoms: _531  and  _534
REMARK  218  A    between atoms: _534  and  _535
REMARK  219  A    between atoms: _540  and  _542
REMARK  220  A    between atoms: _542  and  _543
REMARK  221  A    between atoms: _542  and  _545
REMARK  222  A    between atoms: _545  and  _546
REMARK  223  A    between atoms: _546  and  _547
REMARK  224  A    between atoms: _554  and  _555
REMARK  225  A    between atoms: _555  and  _571
REMARK  226  A    between atoms: _556  and  _558
REMARK  227  A    between atoms: _558  and  _559
REMARK  228  A    between atoms: _559  and  _560
REMARK  229  A    between atoms: _564  and  _566
REMARK  230  A    between atoms: _566  and  _567
REMARK  231  A    between atoms: _566  and  _574
REMARK  232  A    between atoms: _567  and  _568
REMARK  233  A    between atoms: _568  and  _569
REMARK  234  A    between atoms: _569  and  _570
REMARK  235  A    between atoms: _570  and  _571
REMARK  236  A    between atoms: _576  and  _578
REMARK  237  A    between atoms: _578  and  _579
REMARK  238  A    between atoms: _578  and  _581
REMARK  239  A    between atoms: _581  and  _582
REMARK  240  A    between atoms: _585  and  _587
REMARK  241  A    between atoms: _587  and  _588
REMARK  242  A    between atoms: _590  and  _592
REMARK  243  A    between atoms: _592  and  _593
REMARK  244  A    between atoms: _596  and  _598
REMARK  245  A    between atoms: _598  and  _599
REMARK  246  A    between atoms: _598  and  _601
REMARK  247  A    between atoms: _601  and  _602
REMARK  248  A    between atoms: _607  and  _608
REMARK                            x       y       z     vdW  Elec       q    Type
REMARK                         _______ _______ _______ _____ _____    ______ ____
ROOT
ATOM      1  C   LYS A   1      25.661  30.079  26.889  0.00  0.00    +0.238 C 
ATOM      2  N   ARG A   2      26.761  29.775  27.563  0.00  0.00    -0.298 N 
ATOM      3  H   ARG A   2      27.091  28.789  27.598  0.00  0.00    +0.150 HD
ATOM      4  O   LYS A   1      25.207  31.222  26.835  0.00  0.00    -0.274 OA
ENDROOT
BRANCH   1   5
ATOM      5  CA  LYS A   1      24.965  28.945  26.158  0.00  0.00    +0.145 C 
BRANCH   5   6
ATOM      6  N   LYS A   1      23.669  29.507  25.769  0.00  0.00    -0.238 NA
ATOM      7  H   LYS A   1      23.419  30.451  26.127  0.00  0.00    +0.142 HD
ENDBRANCH   5   6
BRANCH   5   8
ATOM      8  CB  LYS A   1      25.790  28.538  24.931  0.00  0.00    +0.026 C 
BRANCH   8   9
ATOM      9  CG  LYS A   1      25.934  29.640  23.881  0.00  0.00    -0.000 C 
BRANCH   9  10
ATOM     10  CD  LYS A   1      26.606  29.179  22.588  0.00  0.00    -0.024 C 
BRANCH  10  11
ATOM     11  CE  LYS A   1      25.698  28.295  21.732  0.00  0.00    -0.086 C 
BRANCH  11  12
ATOM     12  NZ  LYS A   1      26.142  26.873  21.704  0.00  0.00    +0.380 N 
ATOM     13  HZ1 LYS A   1      26.140  26.491  22.671  0.00  0.00    -0.089 HD
ATOM     14  HZ2 LYS A   1      27.103  26.819  21.311  0.00  0.00    -0.089 HD
ATOM     15  HZ3 LYS A   1      25.492  26.320  21.110  0.00  0.00    -0.089 HD
ENDBRANCH  11  12
ENDBRANCH  10  11
ENDBRANCH   9  10
ENDBRANCH   8   9
ENDBRANCH   5   8
ENDBRANCH   1   5
BRANCH   2  16
ATOM     16  CA  ARG A   2      27.509  30.816  28.255  0.00  0.00    +0.137 C 
BRANCH  16  17
ATOM     17  C   ARG A   2      27.966  31.908  27.295  0.00  0.00    +0.227 C 
ATOM     18  O   ARG A   2      28.268  31.643  26.130  0.00  0.00    -0.286 OA
ENDBRANCH  16  17
BRANCH  16  19
ATOM     19  CB  ARG A   2      28.686  30.212  29.016  0.00  0.00    +0.031 C 
BRANCH  19  20
ATOM     20  CG  ARG A   2      28.255  29.420  30.246  0.00  0.00    +0.045 C 
BRANCH  20  21
ATOM     21  CD  ARG A   2      27.666  30.329  31.324  0.00  0.00    +0.174 C 
BRANCH  21  22
ATOM     22  NE  ARG A   2      28.666  31.265  31.843  0.00  0.00    -0.265 N 
ATOM     23  CZ  ARG A   2      29.351  31.087  32.970  0.00  0.00    +0.342 C 
ATOM     24  NH2 ARG A   2      29.150  30.012  33.726  0.00  0.00    -0.292 N 
ATOM     25 HH21 ARG A   2      29.692  29.885  34.604  0.00  0.00    +0.255 HD
ATOM     26 HH22 ARG A   2      28.451  29.298  33.439  0.00  0.00    +0.255 HD
ATOM     27  NH1 ARG A   2      30.240  31.995  33.346  0.00  0.00    -0.292 N 
ATOM     28 HH11 ARG A   2      30.779  31.862  34.226  0.00  0.00    +0.255 HD
ATOM     29 HH12 ARG A   2      30.399  32.840  32.761  0.00  0.00    +0.255 HD
ATOM     30  HE  ARG A   2      28.854  32.128  31.293  0.00  0.00    +0.259 HD
ENDBRANCH  21  22
ENDBRANCH  20  21
ENDBRANCH  19  20
ENDBRANCH  16  19
ENDBRANCH   2  16
TORSDOF 13
REMARK  Name = ../refined-set-2016/3g2i/3g2i_pocket.pdb
REMARK  248 active torsions:
REMARK  status: ('A' for Active; 'I' for Inactive)
REMARK    1  A    between atoms: _1  and  _3
REMARK    2  A    between atoms: _3  and  _4
REMARK    3  A    between atoms: _3  and  _6
REMARK    4  A    between atoms: _6  and  _7
REMARK    5  A    between atoms: _12  and  _13
REMARK    6  A    between atoms: _15  and  _17
REMARK    7  A    between atoms: _17  and  _18
REMARK    8  A    between atoms: _17  and  _20
REMARK    9  A    between atoms: _20  and  _21
REMARK   10  A    between atoms: _21  and  _22
REMARK   11  A    between atoms: _25  and  _27
REMARK   12  A    between atoms: _27  and  _28
REMARK   13  A    between atoms: _27  and  _30
REMARK   14  A    between atoms: _30  and  _31
REMARK   15  A    between atoms: _36  and  _38
REMARK   16  A    between atoms: _38  and  _39
REMARK   17  A    between atoms: _41  and  _43
REMARK   18  A    between atoms: _43  and  _44
REMARK   19  A    between atoms: _46  and  _48
REMARK   20  A    between atoms: _48  and  _49
REMARK   21  A    between atoms: _48  and  _51
REMARK   22  A    between atoms: _51  and  _52
REMARK   23  A    between atoms: _55  and  _57
REMARK   24  A    between atoms: _57  and  _58
REMARK   25  A    between atoms: _60  and  _62
REMARK   26  A    between atoms: _62  and  _63
REMARK   27  A    between atoms: _62  and  _65
REMARK   28  A    between atoms: _65  and  _66
REMARK   29  A    between atoms: _66  and  _67
REMARK   30  A    between atoms: _67  and  _68
REMARK   31  A    between atoms: _77  and  _79
REMARK   32  A    between atoms: _79  and  _80
REMARK   33  A    between atoms: _79  and  _82
REMARK   34  A    between atoms: _82  and  _83
REMARK   35  A    between atoms: _86  and  _88
REMARK   36  A    between atoms: _88  and  _89
REMARK   37  A    between atoms: _92  and  _94
REMARK   38  A    between atoms: _94  and  _95
REMARK   39  A    between atoms: _94  and  _97
REMARK   40  A    between atoms: _97  and  _98
REMARK   41  A    between atoms: _104  and  _106
REMARK   42  A    between atoms: _106  and  _107
REMARK   43  A    between atoms: _106  and  _109
REMARK   44  A    between atoms: _109  and  _110
REMARK   45  A    between atoms: _115  and  _117
REMARK   46  A    between atoms: _117  and  _118
REMARK   47  A    between atoms: _117  and  _120
REMARK   48  A    between atoms: _120  and  _121
REMARK   49  A    between atoms: _124  and  _126
REMARK   50  A    between atoms: _126  and  _127
REMARK   51  A    between atoms: _126  and  _129
REMARK   52  A    between atoms: _129  and  _130
REMARK   53  A    between atoms: _135  and  _137
REMARK   54  A    between atoms: _137  and  _138
REMARK   55  A    between atoms: _137  and  _140
REMARK   56  A    between atoms: _140  and  _141
REMARK   57  A    between atoms: _147  and  _149
REMARK   58  A    between atoms: _149  and  _150
REMARK   59  A    between atoms: _149  and  _152
REMARK   60  A    between atoms: _152  and  _153
REMARK   61  A    between atoms: _159  and  _161
REMARK   62  A    between atoms: _161  and  _162
REMARK   63  A    between atoms: _161  and  _164
REMARK   64  A    between atoms: _164  and  _165
REMARK   65  A    between atoms: _165  and  _166
REMARK   66  A    between atoms: _166  and  _167
REMARK   67  A    between atoms: _176  and  _178
REMARK   68  A    between atoms: _178  and  _179
REMARK   69  A    between atoms: _178  and  _181
REMARK   70  A    between atoms: _181  and  _182
REMARK   71  A    between atoms: _187  and  _189
REMARK   72  A    between atoms: _189  and  _190
REMARK   73  A    between atoms: _189  and  _192
REMARK   74  A    between atoms: _192  and  _193
REMARK   75  A    between atoms: _196  and  _198
REMARK   76  A    between atoms: _198  and  _199
REMARK   77  A    between atoms: _198  and  _201
REMARK   78  A    between atoms: _201  and  _202
REMARK   79  A    between atoms: _205  and  _207
REMARK   80  A    between atoms: _207  and  _208
REMARK   81  A    between atoms: _207  and  _210
REMARK   82  A    between atoms: _210  and  _211
REMARK   83  A    between atoms: _216  and  _218
REMARK   84  A    between atoms: _218  and  _219
REMARK   85  A    between atoms: _218  and  _221
REMARK   86  A    between atoms: _221  and  _222
REMARK   87  A    between atoms: _227  and  _228
REMARK   88  A    between atoms: _230  and  _232
REMARK   89  A    between atoms: _232  and  _233
REMARK   90  A    between atoms: _232  and  _235
REMARK   91  A    between atoms: _235  and  _236
REMARK   92  A    between atoms: _239  and  _241
REMARK   93  A    between atoms: _241  and  _242
REMARK   94  A    between atoms: _241  and  _244
REMARK   95  A    between atoms: _244  and  _245
REMARK   96  A    between atoms: _250  and  _252
REMARK   97  A    between atoms: _252  and  _253
REMARK   98  A    between atoms: _252  and  _255
REMARK   99  A    between atoms: _255  and  _256
REMARK  100  A    between atoms: _261  and  _263
REMARK  101  A    between atoms: _263  and  _264
REMARK  102  A    between atoms: _263  and  _266
REMARK  103  A    between atoms: _266  and  _267
REMARK  104  A    between atoms: _270  and  _272
REMARK  105  A    between atoms: _272  and  _273
REMARK  106  A    between atoms: _272  and  _275
REMARK  107  A    between atoms: _278  and  _280
REMARK  108  A    between atoms: _280  and  _281
REMARK  109  A    between atoms: _280  and  _283
REMARK  110  A    between atoms: _283  and  _284
REMARK  111  A    between atoms: _287  and  _289
REMARK  112  A    between atoms: _289  and  _290
REMARK  113  A    between atoms: _289  and  _292
REMARK  114  A    between atoms: _292  and  _293
REMARK  115  A    between atoms: _293  and  _294
REMARK  116  A    between atoms: _297  and  _299
REMARK  117  A    between atoms: _299  and  _300
REMARK  118  A    between atoms: _303  and  _305
REMARK  119  A    between atoms: _305  and  _306
REMARK  120  A    between atoms: _305  and  _308
REMARK  121  A    between atoms: _308  and  _309
REMARK  122  A    between atoms: _312  and  _314
REMARK  123  A    between atoms: _314  and  _315
REMARK  124  A    between atoms: _314  and  _317
REMARK  125  A    between atoms: _317  and  _318
REMARK  126  A    between atoms: _318  and  _319
REMARK  127  A    between atoms: _322  and  _324
REMARK  128  A    between atoms: _324  and  _325
REMARK  129  A    between atoms: _324  and  _327
REMARK  130  A    between atoms: _327  and  _328
REMARK  131  A    between atoms: _333  and  _335
REMARK  132  A    between atoms: _335  and  _336
REMARK  133  A    between atoms: _338  and  _340
REMARK  134  A    between atoms: _340  and  _341
REMARK  135  A    between atoms: _340  and  _343
REMARK  136  A    between atoms: _346  and  _348
REMARK  137  A    between atoms: _348  and  _349
REMARK  138  A    between atoms: _352  and  _354
REMARK  139  A    between atoms: _354  and  _355
REMARK  140  A    between atoms: _354  and  _357
REMARK  141  A    between atoms: _357  and  _358
REMARK  142  A    between atoms: _363  and  _365
REMARK  143  A    between atoms: _365  and  _366
REMARK  144  A    between atoms: _365  and  _368
REMARK  145  A    between atoms: _368  and  _369
REMARK  146  A    between atoms: _369  and  _370
REMARK  147  A    between atoms: _370  and  _371
REMARK  148  A    between atoms: _371  and  _372
REMARK  149  A    between atoms: _376  and  _378
REMARK  150  A    between atoms: _378  and  _379
REMARK  151  A    between atoms: _378  and  _381
REMARK  152  A    between atoms: _381  and  _382
REMARK  153  A    between atoms: _385  and  _387
REMARK  154  A    between atoms: _387  and  _388
REMARK  155  A    between atoms: _387  and  _390
REMARK  156  A    between atoms: _390  and  _391
REMARK  157  A    between atoms: _396  and  _398
REMARK  158  A    between atoms: _398  and  _399
REMARK  159  A    between atoms: _401  and  _403
REMARK  160  A    between atoms: _403  and  _404
REMARK  161  A    between atoms: _403  and  _406
REMARK  162  A    between atoms: _406  and  _407
REMARK  163  A    between atoms: _407  and  _408
REMARK  164  A    between atoms: _408  and  _409
REMARK  165  A    between atoms: _409  and  _410
REMARK  166  A    between atoms: _414  and  _416
REMARK  167  A    between atoms: _416  and  _417
REMARK  168  A    between atoms: _416  and  _419
REMARK  169  A    between atoms: _419  and  _420
REMARK  170  A    between atoms: _420  and  _421
REMARK  171  A    between atoms: _421  and  _422
REMARK  172  A    between atoms: _431  and  _433
REMARK  173  A    between atoms: _433  and  _434
REMARK  174  A    between atoms: _433  and  _436
REMARK  175  A    between atoms: _436  and  _437
REMARK  176  A    between atoms: _442  and  _444
REMARK  177  A    between atoms: _444  and  _445
REMARK  178  A    between atoms: _444  and  _447
REMARK  179  A    between atoms: _447  and  _448
REMARK  180  A    between atoms: _453  and  _454
REMARK  181  A    between atoms: _456  and  _458
REMARK  182  A    between atoms: _458  and  _459
REMARK  183  A    between atoms: _458  and  _461
REMARK  184  A    between atoms: _461  and  _462
REMARK  185  A    between atoms: _462  and  _463
REMARK  186  A    between atoms: _463  and  _464
REMARK  187  A    between atoms: _464  and  _465
REMARK  188  A    between atoms: _469  and  _471
REMARK  189  A    between atoms: _471  and  _472
REMARK  190  A    between atoms: _471  and  _474
REMARK  191  A    between atoms: _474  and  _475
REMARK  192  A    between atoms: _477  and  _479
REMARK  193  A    between atoms: _479  and  _480
REMARK  194  A    between atoms: _479  and  _482
REMARK  195  A    between atoms: _482  and  _483
REMARK  196  A    between atoms: _486  and  _488
REMARK  197  A    between atoms: _488  and  _489
REMARK  198  A    between atoms: _488  and  _491
REMARK  199  A    between atoms: _491  and  _492
REMARK  200  A    between atoms: _492  and  _493
REMARK  201  A    between atoms: _496  and  _498
REMARK  202  A    between atoms: _498  and  _499
REMARK  203  A    between atoms: _502  and  _504
REMARK  204  A    between atoms: _504  and  _505
REMARK  205  A    between atoms: _504  and  _507
REMARK  206  A    between atoms: _507  and  _508
REMARK  207  A    between atoms: _510  and  _512
REMARK  208  A    between atoms: _512  and  _513
REMARK  209  A    between atoms: _515  and  _517
REMARK  210  A    between atoms: _517  and  _518
REMARK  211  A    between atoms: _517  and  _520
REMARK  212  A    between atoms: _520  and  _521
REMARK  213  A    between atoms: _524  and  _526
REMARK  214  A    between atoms: _526  and  _527
REMARK  215  A    between atoms: _529  and  _531
REMARK  216  A    between atoms: _531  and  _532
REMARK  217  A    between atoms: _531  and  _534
REMARK  218  A    between atoms: _534  and  _535
REMARK  219  A    between atoms: _540  and  _542
REMARK  220  A    between atoms: _542  and  _543
REMARK  221  A    between atoms: _542  and  _545
REMARK  222  A    between atoms: _545  and  _546
REMARK  223  A    between atoms: _546  and  _547
REMARK  224  A    between atoms: _554  and  _555
REMARK  225  A    between atoms: _555  and  _571
REMARK  226  A    between atoms: _556  and  _558
REMARK  227  A    between atoms: _558  and  _559
REMARK  228  A    between atoms: _559  and  _560
REMARK  229  A    between atoms: _564  and  _566
REMARK  230  A    between atoms: _566  and  _567
REMARK  231  A    between atoms: _566  and  _574
REMARK  232  A    between atoms: _567  and  _568
REMARK  233  A    between atoms: _568  and  _569
REMARK  234  A    between atoms: _569  and  _570
REMARK  235  A    between atoms: _570  and  _571
REMARK  236  A    between atoms: _576  and  _578
REMARK  237  A    between atoms: _578  and  _579
REMARK  238  A    between atoms: _578  and  _581
REMARK  239  A    between atoms: _581  and  _582
REMARK  240  A    between atoms: _585  and  _587
REMARK  241  A    between atoms: _587  and  _588
REMARK  242  A    between atoms: _590  and  _592
REMARK  243  A    between atoms: _592  and  _593
REMARK  244  A    between atoms: _596  and  _598
REMARK  245  A    between atoms: _598  and  _599
REMARK  246  A    between atoms: _598  and  _601
REMARK  247  A    between atoms: _601  and  _602
REMARK  248  A    between atoms: _607  and  _608
REMARK                            x       y       z     vdW  Elec       q    Type
REMARK                         _______ _______ _______ _____ _____    ______ ____
ROOT
ATOM      1  CB  HIS A   1      32.451  32.589  25.553  0.00  0.00    +0.072 C 
ENDROOT
BRANCH   1   2
ATOM      2  CG  HIS A   1      33.916  32.570  25.877  0.00  0.00    +0.082 A 
ATOM      3  CD2 HIS A   1      34.578  32.149  26.980  0.00  0.00    +0.115 A 
ATOM      4  NE2 HIS A   1      35.918  32.350  26.752  0.00  0.00    -0.221 NA
ATOM      5  CE1 HIS A   1      36.075  32.879  25.552  0.00  0.00    +0.199 A 
ATOM      6  ND1 HIS A   1      34.883  33.018  25.001  0.00  0.00    -0.227 NA
ENDBRANCH   1   2
BRANCH   1   7
ATOM      7  CA  HIS A   1      31.874  33.999  25.375  0.00  0.00    +0.139 C 
BRANCH   7   8
ATOM      8  N   HIS A   1      30.446  34.033  25.642  0.00  0.00    -0.239 NA
ATOM      9  H   HIS A   1      29.778  33.930  24.851  0.00  0.00    +0.142 HD
ENDBRANCH   7   8
BRANCH   7  10
ATOM     10  C   HIS A   1      32.145  34.515  23.977  0.00  0.00    +0.224 C 
ATOM     11  O   HIS A   1      31.325  34.384  23.065  0.00  0.00    -0.287 OA
ENDBRANCH   7  10
ENDBRANCH   1   7
TORSDOF 4
REMARK  Name = ../refined-set-2016/3g2i/3g2i_pocket.pdb
REMARK  248 active torsions:
REMARK  status: ('A' for Active; 'I' for Inactive)
REMARK    1  A    between atoms: _1  and  _3
REMARK    2  A    between atoms: _3  and  _4
REMARK    3  A    between atoms: _3  and  _6
REMARK    4  A    between atoms: _6  and  _7
REMARK    5  A    between atoms: _12  and  _13
REMARK    6  A    between atoms: _15  and  _17
REMARK    7  A    between atoms: _17  and  _18
REMARK    8  A    between atoms: _17  and  _20
REMARK    9  A    between atoms: _20  and  _21
REMARK   10  A    between atoms: _21  and  _22
REMARK   11  A    between atoms: _25  and  _27
REMARK   12  A    between atoms: _27  and  _28
REMARK   13  A    between atoms: _27  and  _30
REMARK   14  A    between atoms: _30  and  _31
REMARK   15  A    between atoms: _36  and  _38
REMARK   16  A    between atoms: _38  and  _39
REMARK   17  A    between atoms: _41  and  _43
REMARK   18  A    between atoms: _43  and  _44
REMARK   19  A    between atoms: _46  and  _48
REMARK   20  A    between atoms: _48  and  _49
REMARK   21  A    between atoms: _48  and  _51
REMARK   22  A    between atoms: _51  and  _52
REMARK   23  A    between atoms: _55  and  _57
REMARK   24  A    between atoms: _57  and  _58
REMARK   25  A    between atoms: _60  and  _62
REMARK   26  A    between atoms: _62  and  _63
REMARK   27  A    between atoms: _62  and  _65
REMARK   28  A    between atoms: _65  and  _66
REMARK   29  A    between atoms: _66  and  _67
REMARK   30  A    between atoms: _67  and  _68
REMARK   31  A    between atoms: _77  and  _79
REMARK   32  A    between atoms: _79  and  _80
REMARK   33  A    between atoms: _79  and  _82
REMARK   34  A    between atoms: _82  and  _83
REMARK   35  A    between atoms: _86  and  _88
REMARK   36  A    between atoms: _88  and  _89
REMARK   37  A    between atoms: _92  and  _94
REMARK   38  A    between atoms: _94  and  _95
REMARK   39  A    between atoms: _94  and  _97
REMARK   40  A    between atoms: _97  and  _98
REMARK   41  A    between atoms: _104  and  _106
REMARK   42  A    between atoms: _106  and  _107
REMARK   43  A    between atoms: _106  and  _109
REMARK   44  A    between atoms: _109  and  _110
REMARK   45  A    between atoms: _115  and  _117
REMARK   46  A    between atoms: _117  and  _118
REMARK   47  A    between atoms: _117  and  _120
REMARK   48  A    between atoms: _120  and  _121
REMARK   49  A    between atoms: _124  and  _126
REMARK   50  A    between atoms: _126  and  _127
REMARK   51  A    between atoms: _126  and  _129
REMARK   52  A    between atoms: _129  and  _130
REMARK   53  A    between atoms: _135  and  _137
REMARK   54  A    between atoms: _137  and  _138
REMARK   55  A    between atoms: _137  and  _140
REMARK   56  A    between atoms: _140  and  _141
REMARK   57  A    between atoms: _147  and  _149
REMARK   58  A    between atoms: _149  and  _150
REMARK   59  A    between atoms: _149  and  _152
REMARK   60  A    between atoms: _152  and  _153
REMARK   61  A    between atoms: _159  and  _161
REMARK   62  A    between atoms: _161  and  _162
REMARK   63  A    between atoms: _161  and  _164
REMARK   64  A    between atoms: _164  and  _165
REMARK   65  A    between atoms: _165  and  _166
REMARK   66  A    between atoms: _166  and  _167
REMARK   67  A    between atoms: _176  and  _178
REMARK   68  A    between atoms: _178  and  _179
REMARK   69  A    between atoms: _178  and  _181
REMARK   70  A    between atoms: _181  and  _182
REMARK   71  A    between atoms: _187  and  _189
REMARK   72  A    between atoms: _189  and  _190
REMARK   73  A    between atoms: _189  and  _192
REMARK   74  A    between atoms: _192  and  _193
REMARK   75  A    between atoms: _196  and  _198
REMARK   76  A    between atoms: _198  and  _199
REMARK   77  A    between atoms: _198  and  _201
REMARK   78  A    between atoms: _201  and  _202
REMARK   79  A    between atoms: _205  and  _207
REMARK   80  A    between atoms: _207  and  _208
REMARK   81  A    between atoms: _207  and  _210
REMARK   82  A    between atoms: _210  and  _211
REMARK   83  A    between atoms: _216  and  _218
REMARK   84  A    between atoms: _218  and  _219
REMARK   85  A    between atoms: _218  and  _221
REMARK   86  A    between atoms: _221  and  _222
REMARK   87  A    between atoms: _227  and  _228
REMARK   88  A    between atoms: _230  and  _232
REMARK   89  A    between atoms: _232  and  _233
REMARK   90  A    between atoms: _232  and  _235
REMARK   91  A    between atoms: _235  and  _236
REMARK   92  A    between atoms: _239  and  _241
REMARK   93  A    between atoms: _241  and  _242
REMARK   94  A    between atoms: _241  and  _244
REMARK   95  A    between atoms: _244  and  _245
REMARK   96  A    between atoms: _250  and  _252
REMARK   97  A    between atoms: _252  and  _253
REMARK   98  A    between atoms: _252  and  _255
REMARK   99  A    between atoms: _255  and  _256
REMARK  100  A    between atoms: _261  and  _263
REMARK  101  A    between atoms: _263  and  _264
REMARK  102  A    between atoms: _263  and  _266
REMARK  103  A    between atoms: _266  and  _267
REMARK  104  A    between atoms: _270  and  _272
REMARK  105  A    between atoms: _272  and  _273
REMARK  106  A    between atoms: _272  and  _275
REMARK  107  A    between atoms: _278  and  _280
REMARK  108  A    between atoms: _280  and  _281
REMARK  109  A    between atoms: _280  and  _283
REMARK  110  A    between atoms: _283  and  _284
REMARK  111  A    between atoms: _287  and  _289
REMARK  112  A    between atoms: _289  and  _290
REMARK  113  A    between atoms: _289  and  _292
REMARK  114  A    between atoms: _292  and  _293
REMARK  115  A    between atoms: _293  and  _294
REMARK  116  A    between atoms: _297  and  _299
REMARK  117  A    between atoms: _299  and  _300
REMARK  118  A    between atoms: _303  and  _305
REMARK  119  A    between atoms: _305  and  _306
REMARK  120  A    between atoms: _305  and  _308
REMARK  121  A    between atoms: _308  and  _309
REMARK  122  A    between atoms: _312  and  _314
REMARK  123  A    between atoms: _314  and  _315
REMARK  124  A    between atoms: _314  and  _317
REMARK  125  A    between atoms: _317  and  _318
REMARK  126  A    between atoms: _318  and  _319
REMARK  127  A    between atoms: _322  and  _324
REMARK  128  A    between atoms: _324  and  _325
REMARK  129  A    between atoms: _324  and  _327
REMARK  130  A    between atoms: _327  and  _328
REMARK  131  A    between atoms: _333  and  _335
REMARK  132  A    between atoms: _335  and  _336
REMARK  133  A    between atoms: _338  and  _340
REMARK  134  A    between atoms: _340  and  _341
REMARK  135  A    between atoms: _340  and  _343
REMARK  136  A    between atoms: _346  and  _348
REMARK  137  A    between atoms: _348  and  _349
REMARK  138  A    between atoms: _352  and  _354
REMARK  139  A    between atoms: _354  and  _355
REMARK  140  A    between atoms: _354  and  _357
REMARK  141  A    between atoms: _357  and  _358
REMARK  142  A    between atoms: _363  and  _365
REMARK  143  A    between atoms: _365  and  _366
REMARK  144  A    between atoms: _365  and  _368
REMARK  145  A    between atoms: _368  and  _369
REMARK  146  A    between atoms: _369  and  _370
REMARK  147  A    between atoms: _370  and  _371
REMARK  148  A    between atoms: _371  and  _372
REMARK  149  A    between atoms: _376  and  _378
REMARK  150  A    between atoms: _378  and  _379
REMARK  151  A    between atoms: _378  and  _381
REMARK  152  A    between atoms: _381  and  _382
REMARK  153  A    between atoms: _385  and  _387
REMARK  154  A    between atoms: _387  and  _388
REMARK  155  A    between atoms: _387  and  _390
REMARK  156  A    between atoms: _390  and  _391
REMARK  157  A    between atoms: _396  and  _398
REMARK  158  A    between atoms: _398  and  _399
REMARK  159  A    between atoms: _401  and  _403
REMARK  160  A    between atoms: _403  and  _404
REMARK  161  A    between atoms: _403  and  _406
REMARK  162  A    between atoms: _406  and  _407
REMARK  163  A    between atoms: _407  and  _408
REMARK  164  A    between atoms: _408  and  _409
REMARK  165  A    between atoms: _409  and  _410
REMARK  166  A    between atoms: _414  and  _416
REMARK  167  A    between atoms: _416  and  _417
REMARK  168  A    between atoms: _416  and  _419
REMARK  169  A    between atoms: _419  and  _420
REMARK  170  A    between atoms: _420  and  _421
REMARK  171  A    between atoms: _421  and  _422
REMARK  172  A    between atoms: _431  and  _433
REMARK  173  A    between atoms: _433  and  _434
REMARK  174  A    between atoms: _433  and  _436
REMARK  175  A    between atoms: _436  and  _437
REMARK  176  A    between atoms: _442  and  _444
REMARK  177  A    between atoms: _444  and  _445
REMARK  178  A    between atoms: _444  and  _447
REMARK  179  A    between atoms: _447  and  _448
REMARK  180  A    between atoms: _453  and  _454
REMARK  181  A    between atoms: _456  and  _458
REMARK  182  A    between atoms: _458  and  _459
REMARK  183  A    between atoms: _458  and  _461
REMARK  184  A    between atoms: _461  and  _462
REMARK  185  A    between atoms: _462  and  _463
REMARK  186  A    between atoms: _463  and  _464
REMARK  187  A    between atoms: _464  and  _465
REMARK  188  A    between atoms: _469  and  _471
REMARK  189  A    between atoms: _471  and  _472
REMARK  190  A    between atoms: _471  and  _474
REMARK  191  A    between atoms: _474  and  _475
REMARK  192  A    between atoms: _477  and  _479
REMARK  193  A    between atoms: _479  and  _480
REMARK  194  A    between atoms: _479  and  _482
REMARK  195  A    between atoms: _482  and  _483
REMARK  196  A    between atoms: _486  and  _488
REMARK  197  A    between atoms: _488  and  _489
REMARK  198  A    between atoms: _488  and  _491
REMARK  199  A    between atoms: _491  and  _492
REMARK  200  A    between atoms: _492  and  _493
REMARK  201  A    between atoms: _496  and  _498
REMARK  202  A    between atoms: _498  and  _499
REMARK  203  A    between atoms: _502  and  _504
REMARK  204  A    between atoms: _504  and  _505
REMARK  205  A    between atoms: _504  and  _507
REMARK  206  A    between atoms: _507  and  _508
REMARK  207  A    between atoms: _510  and  _512
REMARK  208  A    between atoms: _512  and  _513
REMARK  209  A    between atoms: _515  and  _517
REMARK  210  A    between atoms: _517  and  _518
REMARK  211  A    between atoms: _517  and  _520
REMARK  212  A    between atoms: _520  and  _521
REMARK  213  A    between atoms: _524  and  _526
REMARK  214  A    between atoms: _526  and  _527
REMARK  215  A    between atoms: _529  and  _531
REMARK  216  A    between atoms: _531  and  _532
REMARK  217  A    between atoms: _531  and  _534
REMARK  218  A    between atoms: _534  and  _535
REMARK  219  A    between atoms: _540  and  _542
REMARK  220  A    between atoms: _542  and  _543
REMARK  221  A    between atoms: _542  and  _545
REMARK  222  A    between atoms: _545  and  _546
REMARK  223  A    between atoms: _546  and  _547
REMARK  224  A    between atoms: _554  and  _555
REMARK  225  A    between atoms: _555  and  _571
REMARK  226  A    between atoms: _556  and  _558
REMARK  227  A    between atoms: _558  and  _559
REMARK  228  A    between atoms: _559  and  _560
REMARK  229  A    between atoms: _564  and  _566
REMARK  230  A    between atoms: _566  and  _567
REMARK  231  A    between atoms: _566  and  _574
REMARK  232  A    between atoms: _567  and  _568
REMARK  233  A    between atoms: _568  and  _569
REMARK  234  A    between atoms: _569  and  _570
REMARK  235  A    between atoms: _570  and  _571
REMARK  236  A    between atoms: _576  and  _578
REMARK  237  A    between atoms: _578  and  _579
REMARK  238  A    between atoms: _578  and  _581
REMARK  239  A    between atoms: _581  and  _582
REMARK  240  A    between atoms: _585  and  _587
REMARK  241  A    between atoms: _587  and  _588
REMARK  242  A    between atoms: _590  and  _592
REMARK  243  A    between atoms: _592  and  _593
REMARK  244  A    between atoms: _596  and  _598
REMARK  245  A    between atoms: _598  and  _599
REMARK  246  A    between atoms: _598  and  _601
REMARK  247  A    between atoms: _601  and  _602
REMARK  248  A    between atoms: _607  and  _608
REMARK                            x       y       z     vdW  Elec       q    Type
REMARK                         _______ _______ _______ _____ _____    ______ ____
ROOT
ATOM      1  C   TYR A   1      33.133  31.700  20.445  0.00  0.00    +0.239 C 
ATOM      2  N   LYS A   2      32.101  31.789  21.282  0.00  0.00    -0.298 N 
ATOM      3  H   LYS A   2      32.249  32.225  22.215  0.00  0.00    +0.150 HD
ATOM      4  O   TYR A   1      33.050  31.207  19.323  0.00  0.00    -0.274 OA
ENDROOT
BRANCH   1   5
ATOM      5  CA  TYR A   1      34.468  32.267  20.932  0.00  0.00    +0.149 C 
BRANCH   5   6
ATOM      6  N   TYR A   1      34.318  33.360  21.898  0.00  0.00    -0.238 NA
ATOM      7  H   TYR A   1      34.602  33.226  22.890  0.00  0.00    +0.142 HD
ENDBRANCH   5   6
BRANCH   5   8
ATOM      8  CB  TYR A   1      35.417  31.173  21.439  0.00  0.00    +0.053 C 
BRANCH   8   9
ATOM      9  CG  TYR A   1      34.810  30.080  22.285  0.00  0.00    -0.020 A 
ATOM     10  CD2 TYR A   1      34.846  30.146  23.673  0.00  0.00    -0.001 A 
ATOM     11  CE2 TYR A   1      34.312  29.130  24.455  0.00  0.00    +0.036 A 
ATOM     12  CZ  TYR A   1      33.757  28.021  23.845  0.00  0.00    +0.134 A 
ATOM     13  CE1 TYR A   1      33.724  27.926  22.465  0.00  0.00    +0.036 A 
ATOM     14  CD1 TYR A   1      34.254  28.944  21.695  0.00  0.00    -0.001 A 
BRANCH  12  15
ATOM     15  OH  TYR A   1      33.224  26.999  24.607  0.00  0.00    -0.506 OA
ATOM     16  HH  TYR A   1      32.873  26.292  24.010  0.00  0.00    +0.292 HD
ENDBRANCH  12  15
ENDBRANCH   8   9
ENDBRANCH   5   8
ENDBRANCH   1   5
BRANCH   2  17
ATOM     17  CA  LYS A   2      30.766  31.296  20.938  0.00  0.00    +0.137 C 
BRANCH  17  18
ATOM     18  C   LYS A   2      30.020  32.267  20.016  0.00  0.00    +0.227 C 
ATOM     19  O   LYS A   2      28.974  31.931  19.449  0.00  0.00    -0.286 OA
ENDBRANCH  17  18
BRANCH  17  20
ATOM     20  CB  LYS A   2      29.954  31.015  22.205  0.00  0.00    +0.028 C 
BRANCH  20  21
ATOM     21  CG  LYS A   2      30.469  29.828  23.019  0.00  0.00    -0.000 C 
BRANCH  21  22
ATOM     22  CD  LYS A   2      29.716  29.688  24.330  0.00  0.00    -0.024 C 
BRANCH  22  23
ATOM     23  CE  LYS A   2      30.327  28.646  25.250  0.00  0.00    -0.086 C 
BRANCH  23  24
ATOM     24  NZ  LYS A   2      30.041  27.258  24.774  0.00  0.00    +0.380 N 
ATOM     25  HZ1 LYS A   2      30.473  26.573  25.426  0.00  0.00    -0.089 HD
ATOM     26  HZ2 LYS A   2      29.012  27.108  24.744  0.00  0.00    -0.089 HD
ATOM     27  HZ3 LYS A   2      30.439  27.130  23.822  0.00  0.00    -0.089 HD
ENDBRANCH  23  24
ENDBRANCH  22  23
ENDBRANCH  21  22
ENDBRANCH  20  21
ENDBRANCH  17  20
ENDBRANCH   2  17
TORSDOF 12
REMARK  Name = ../refined-set-2016/3g2i/3g2i_pocket.pdb
REMARK  248 active torsions:
REMARK  status: ('A' for Active; 'I' for Inactive)
REMARK    1  A    between atoms: _1  and  _3
REMARK    2  A    between atoms: _3  and  _4
REMARK    3  A    between atoms: _3  and  _6
REMARK    4  A    between atoms: _6  and  _7
REMARK    5  A    between atoms: _12  and  _13
REMARK    6  A    between atoms: _15  and  _17
REMARK    7  A    between atoms: _17  and  _18
REMARK    8  A    between atoms: _17  and  _20
REMARK    9  A    between atoms: _20  and  _21
REMARK   10  A    between atoms: _21  and  _22
REMARK   11  A    between atoms: _25  and  _27
REMARK   12  A    between atoms: _27  and  _28
REMARK   13  A    between atoms: _27  and  _30
REMARK   14  A    between atoms: _30  and  _31
REMARK   15  A    between atoms: _36  and  _38
REMARK   16  A    between atoms: _38  and  _39
REMARK   17  A    between atoms: _41  and  _43
REMARK   18  A    between atoms: _43  and  _44
REMARK   19  A    between atoms: _46  and  _48
REMARK   20  A    between atoms: _48  and  _49
REMARK   21  A    between atoms: _48  and  _51
REMARK   22  A    between atoms: _51  and  _52
REMARK   23  A    between atoms: _55  and  _57
REMARK   24  A    between atoms: _57  and  _58
REMARK   25  A    between atoms: _60  and  _62
REMARK   26  A    between atoms: _62  and  _63
REMARK   27  A    between atoms: _62  and  _65
REMARK   28  A    between atoms: _65  and  _66
REMARK   29  A    between atoms: _66  and  _67
REMARK   30  A    between atoms: _67  and  _68
REMARK   31  A    between atoms: _77  and  _79
REMARK   32  A    between atoms: _79  and  _80
REMARK   33  A    between atoms: _79  and  _82
REMARK   34  A    between atoms: _82  and  _83
REMARK   35  A    between atoms: _86  and  _88
REMARK   36  A    between atoms: _88  and  _89
REMARK   37  A    between atoms: _92  and  _94
REMARK   38  A    between atoms: _94  and  _95
REMARK   39  A    between atoms: _94  and  _97
REMARK   40  A    between atoms: _97  and  _98
REMARK   41  A    between atoms: _104  and  _106
REMARK   42  A    between atoms: _106  and  _107
REMARK   43  A    between atoms: _106  and  _109
REMARK   44  A    between atoms: _109  and  _110
REMARK   45  A    between atoms: _115  and  _117
REMARK   46  A    between atoms: _117  and  _118
REMARK   47  A    between atoms: _117  and  _120
REMARK   48  A    between atoms: _120  and  _121
REMARK   49  A    between atoms: _124  and  _126
REMARK   50  A    between atoms: _126  and  _127
REMARK   51  A    between atoms: _126  and  _129
REMARK   52  A    between atoms: _129  and  _130
REMARK   53  A    between atoms: _135  and  _137
REMARK   54  A    between atoms: _137  and  _138
REMARK   55  A    between atoms: _137  and  _140
REMARK   56  A    between atoms: _140  and  _141
REMARK   57  A    between atoms: _147  and  _149
REMARK   58  A    between atoms: _149  and  _150
REMARK   59  A    between atoms: _149  and  _152
REMARK   60  A    between atoms: _152  and  _153
REMARK   61  A    between atoms: _159  and  _161
REMARK   62  A    between atoms: _161  and  _162
REMARK   63  A    between atoms: _161  and  _164
REMARK   64  A    between atoms: _164  and  _165
REMARK   65  A    between atoms: _165  and  _166
REMARK   66  A    between atoms: _166  and  _167
REMARK   67  A    between atoms: _176  and  _178
REMARK   68  A    between atoms: _178  and  _179
REMARK   69  A    between atoms: _178  and  _181
REMARK   70  A    between atoms: _181  and  _182
REMARK   71  A    between atoms: _187  and  _189
REMARK   72  A    between atoms: _189  and  _190
REMARK   73  A    between atoms: _189  and  _192
REMARK   74  A    between atoms: _192  and  _193
REMARK   75  A    between atoms: _196  and  _198
REMARK   76  A    between atoms: _198  and  _199
REMARK   77  A    between atoms: _198  and  _201
REMARK   78  A    between atoms: _201  and  _202
REMARK   79  A    between atoms: _205  and  _207
REMARK   80  A    between atoms: _207  and  _208
REMARK   81  A    between atoms: _207  and  _210
REMARK   82  A    between atoms: _210  and  _211
REMARK   83  A    between atoms: _216  and  _218
REMARK   84  A    between atoms: _218  and  _219
REMARK   85  A    between atoms: _218  and  _221
REMARK   86  A    between atoms: _221  and  _222
REMARK   87  A    between atoms: _227  and  _228
REMARK   88  A    between atoms: _230  and  _232
REMARK   89  A    between atoms: _232  and  _233
REMARK   90  A    between atoms: _232  and  _235
REMARK   91  A    between atoms: _235  and  _236
REMARK   92  A    between atoms: _239  and  _241
REMARK   93  A    between atoms: _241  and  _242
REMARK   94  A    between atoms: _241  and  _244
REMARK   95  A    between atoms: _244  and  _245
REMARK   96  A    between atoms: _250  and  _252
REMARK   97  A    between atoms: _252  and  _253
REMARK   98  A    between atoms: _252  and  _255
REMARK   99  A    between atoms: _255  and  _256
REMARK  100  A    between atoms: _261  and  _263
REMARK  101  A    between atoms: _263  and  _264
REMARK  102  A    between atoms: _263  and  _266
REMARK  103  A    between atoms: _266  and  _267
REMARK  104  A    between atoms: _270  and  _272
REMARK  105  A    between atoms: _272  and  _273
REMARK  106  A    between atoms: _272  and  _275
REMARK  107  A    between atoms: _278  and  _280
REMARK  108  A    between atoms: _280  and  _281
REMARK  109  A    between atoms: _280  and  _283
REMARK  110  A    between atoms: _283  and  _284
REMARK  111  A    between atoms: _287  and  _289
REMARK  112  A    between atoms: _289  and  _290
REMARK  113  A    between atoms: _289  and  _292
REMARK  114  A    between atoms: _292  and  _293
REMARK  115  A    between atoms: _293  and  _294
REMARK  116  A    between atoms: _297  and  _299
REMARK  117  A    between atoms: _299  and  _300
REMARK  118  A    between atoms: _303  and  _305
REMARK  119  A    between atoms: _305  and  _306
REMARK  120  A    between atoms: _305  and  _308
REMARK  121  A    between atoms: _308  and  _309
REMARK  122  A    between atoms: _312  and  _314
REMARK  123  A    between atoms: _314  and  _315
REMARK  124  A    between atoms: _314  and  _317
REMARK  125  A    between atoms: _317  and  _318
REMARK  126  A    between atoms: _318  and  _319
REMARK  127  A    between atoms: _322  and  _324
REMARK  128  A    between atoms: _324  and  _325
REMARK  129  A    between atoms: _324  and  _327
REMARK  130  A    between atoms: _327  and  _328
REMARK  131  A    between atoms: _333  and  _335
REMARK  132  A    between atoms: _335  and  _336
REMARK  133  A    between atoms: _338  and  _340
REMARK  134  A    between atoms: _340  and  _341
REMARK  135  A    between atoms: _340  and  _343
REMARK  136  A    between atoms: _346  and  _348
REMARK  137  A    between atoms: _348  and  _349
REMARK  138  A    between atoms: _352  and  _354
REMARK  139  A    between atoms: _354  and  _355
REMARK  140  A    between atoms: _354  and  _357
REMARK  141  A    between atoms: _357  and  _358
REMARK  142  A    between atoms: _363  and  _365
REMARK  143  A    between atoms: _365  and  _366
REMARK  144  A    between atoms: _365  and  _368
REMARK  145  A    between atoms: _368  and  _369
REMARK  146  A    between atoms: _369  and  _370
REMARK  147  A    between atoms: _370  and  _371
REMARK  148  A    between atoms: _371  and  _372
REMARK  149  A    between atoms: _376  and  _378
REMARK  150  A    between atoms: _378  and  _379
REMARK  151  A    between atoms: _378  and  _381
REMARK  152  A    between atoms: _381  and  _382
REMARK  153  A    between atoms: _385  and  _387
REMARK  154  A    between atoms: _387  and  _388
REMARK  155  A    between atoms: _387  and  _390
REMARK  156  A    between atoms: _390  and  _391
REMARK  157  A    between atoms: _396  and  _398
REMARK  158  A    between atoms: _398  and  _399
REMARK  159  A    between atoms: _401  and  _403
REMARK  160  A    between atoms: _403  and  _404
REMARK  161  A    between atoms: _403  and  _406
REMARK  162  A    between atoms: _406  and  _407
REMARK  163  A    between atoms: _407  and  _408
REMARK  164  A    between atoms: _408  and  _409
REMARK  165  A    between atoms: _409  and  _410
REMARK  166  A    between atoms: _414  and  _416
REMARK  167  A    between atoms: _416  and  _417
REMARK  168  A    between atoms: _416  and  _419
REMARK  169  A    between atoms: _419  and  _420
REMARK  170  A    between atoms: _420  and  _421
REMARK  171  A    between atoms: _421  and  _422
REMARK  172  A    between atoms: _431  and  _433
REMARK  173  A    between atoms: _433  and  _434
REMARK  174  A    between atoms: _433  and  _436
REMARK  175  A    between atoms: _436  and  _437
REMARK  176  A    between atoms: _442  and  _444
REMARK  177  A    between atoms: _444  and  _445
REMARK  178  A    between atoms: _444  and  _447
REMARK  179  A    between atoms: _447  and  _448
REMARK  180  A    between atoms: _453  and  _454
REMARK  181  A    between atoms: _456  and  _458
REMARK  182  A    between atoms: _458  and  _459
REMARK  183  A    between atoms: _458  and  _461
REMARK  184  A    between atoms: _461  and  _462
REMARK  185  A    between atoms: _462  and  _463
REMARK  186  A    between atoms: _463  and  _464
REMARK  187  A    between atoms: _464  and  _465
REMARK  188  A    between atoms: _469  and  _471
REMARK  189  A    between atoms: _471  and  _472
REMARK  190  A    between atoms: _471  and  _474
REMARK  191  A    between atoms: _474  and  _475
REMARK  192  A    between atoms: _477  and  _479
REMARK  193  A    between atoms: _479  and  _480
REMARK  194  A    between atoms: _479  and  _482
REMARK  195  A    between atoms: _482  and  _483
REMARK  196  A    between atoms: _486  and  _488
REMARK  197  A    between atoms: _488  and  _489
REMARK  198  A    between atoms: _488  and  _491
REMARK  199  A    between atoms: _491  and  _492
REMARK  200  A    between atoms: _492  and  _493
REMARK  201  A    between atoms: _496  and  _498
REMARK  202  A    between atoms: _498  and  _499
REMARK  203  A    between atoms: _502  and  _504
REMARK  204  A    between atoms: _504  and  _505
REMARK  205  A    between atoms: _504  and  _507
REMARK  206  A    between atoms: _507  and  _508
REMARK  207  A    between atoms: _510  and  _512
REMARK  208  A    between atoms: _512  and  _513
REMARK  209  A    between atoms: _515  and  _517
REMARK  210  A    between atoms: _517  and  _518
REMARK  211  A    between atoms: _517  and  _520
REMARK  212  A    between atoms: _520  and  _521
REMARK  213  A    between atoms: _524  and  _526
REMARK  214  A    between atoms: _526  and  _527
REMARK  215  A    between atoms: _529  and  _531
REMARK  216  A    between atoms: _531  and  _532
REMARK  217  A    between atoms: _531  and  _534
REMARK  218  A    between atoms: _534  and  _535
REMARK  219  A    between atoms: _540  and  _542
REMARK  220  A    between atoms: _542  and  _543
REMARK  221  A    between atoms: _542  and  _545
REMARK  222  A    between atoms: _545  and  _546
REMARK  223  A    between atoms: _546  and  _547
REMARK  224  A    between atoms: _554  and  _555
REMARK  225  A    between atoms: _555  and  _571
REMARK  226  A    between atoms: _556  and  _558
REMARK  227  A    between atoms: _558  and  _559
REMARK  228  A    between atoms: _559  and  _560
REMARK  229  A    between atoms: _564  and  _566
REMARK  230  A    between atoms: _566  and  _567
REMARK  231  A    between atoms: _566  and  _574
REMARK  232  A    between atoms: _567  and  _568
REMARK  233  A    between atoms: _568  and  _569
REMARK  234  A    between atoms: _569  and  _570
REMARK  235  A    between atoms: _570  and  _571
REMARK  236  A    between atoms: _576  and  _578
REMARK  237  A    between atoms: _578  and  _579
REMARK  238  A    between atoms: _578  and  _581
REMARK  239  A    between atoms: _581  and  _582
REMARK  240  A    between atoms: _585  and  _587
REMARK  241  A    between atoms: _587  and  _588
REMARK  242  A    between atoms: _590  and  _592
REMARK  243  A    between atoms: _592  and  _593
REMARK  244  A    between atoms: _596  and  _598
REMARK  245  A    between atoms: _598  and  _599
REMARK  246  A    between atoms: _598  and  _601
REMARK  247  A    between atoms: _601  and  _602
REMARK  248  A    between atoms: _607  and  _608
REMARK                            x       y       z     vdW  Elec       q    Type
REMARK                         _______ _______ _______ _____ _____    ______ ____
ROOT
ATOM      1  CA  SER A   1      31.498  29.214  17.306  0.00  0.00    +0.163 C 
ENDROOT
BRANCH   1   2
ATOM      2  N   SER A   1      30.141  28.984  16.827  0.00  0.00    -0.237 NA
ATOM      3  H   SER A   1      29.650  28.110  17.102  0.00  0.00    +0.142 HD
ENDBRANCH   1   2
BRANCH   1   4
ATOM      4  C   SER A   1      32.480  29.201  16.127  0.00  0.00    +0.227 C 
ATOM      5  O   SER A   1      32.253  28.526  15.128  0.00  0.00    -0.287 OA
ENDBRANCH   1   4
BRANCH   1   6
ATOM      6  CB  SER A   1      31.871  28.118  18.295  0.00  0.00    +0.162 C 
BRANCH   6   7
ATOM      7  OG  SER A   1      31.620  26.848  17.711  0.00  0.00    -0.380 OA
ATOM      8  H   SER A   1      30.659  26.775  17.483  0.00  0.00    +0.211 HD
ENDBRANCH   6   7
ENDBRANCH   1   6
TORSDOF 4
REMARK  Name = ../refined-set-2016/3g2i/3g2i_pocket.pdb
REMARK  248 active torsions:
REMARK  status: ('A' for Active; 'I' for Inactive)
REMARK    1  A    between atoms: _1  and  _3
REMARK    2  A    between atoms: _3  and  _4
REMARK    3  A    between atoms: _3  and  _6
REMARK    4  A    between atoms: _6  and  _7
REMARK    5  A    between atoms: _12  and  _13
REMARK    6  A    between atoms: _15  and  _17
REMARK    7  A    between atoms: _17  and  _18
REMARK    8  A    between atoms: _17  and  _20
REMARK    9  A    between atoms: _20  and  _21
REMARK   10  A    between atoms: _21  and  _22
REMARK   11  A    between atoms: _25  and  _27
REMARK   12  A    between atoms: _27  and  _28
REMARK   13  A    between atoms: _27  and  _30
REMARK   14  A    between atoms: _30  and  _31
REMARK   15  A    between atoms: _36  and  _38
REMARK   16  A    between atoms: _38  and  _39
REMARK   17  A    between atoms: _41  and  _43
REMARK   18  A    between atoms: _43  and  _44
REMARK   19  A    between atoms: _46  and  _48
REMARK   20  A    between atoms: _48  and  _49
REMARK   21  A    between atoms: _48  and  _51
REMARK   22  A    between atoms: _51  and  _52
REMARK   23  A    between atoms: _55  and  _57
REMARK   24  A    between atoms: _57  and  _58
REMARK   25  A    between atoms: _60  and  _62
REMARK   26  A    between atoms: _62  and  _63
REMARK   27  A    between atoms: _62  and  _65
REMARK   28  A    between atoms: _65  and  _66
REMARK   29  A    between atoms: _66  and  _67
REMARK   30  A    between atoms: _67  and  _68
REMARK   31  A    between atoms: _77  and  _79
REMARK   32  A    between atoms: _79  and  _80
REMARK   33  A    between atoms: _79  and  _82
REMARK   34  A    between atoms: _82  and  _83
REMARK   35  A    between atoms: _86  and  _88
REMARK   36  A    between atoms: _88  and  _89
REMARK   37  A    between atoms: _92  and  _94
REMARK   38  A    between atoms: _94  and  _95
REMARK   39  A    between atoms: _94  and  _97
REMARK   40  A    between atoms: _97  and  _98
REMARK   41  A    between atoms: _104  and  _106
REMARK   42  A    between atoms: _106  and  _107
REMARK   43  A    between atoms: _106  and  _109
REMARK   44  A    between atoms: _109  and  _110
REMARK   45  A    between atoms: _115  and  _117
REMARK   46  A    between atoms: _117  and  _118
REMARK   47  A    between atoms: _117  and  _120
REMARK   48  A    between atoms: _120  and  _121
REMARK   49  A    between atoms: _124  and  _126
REMARK   50  A    between atoms: _126  and  _127
REMARK   51  A    between atoms: _126  and  _129
REMARK   52  A    between atoms: _129  and  _130
REMARK   53  A    between atoms: _135  and  _137
REMARK   54  A    between atoms: _137  and  _138
REMARK   55  A    between atoms: _137  and  _140
REMARK   56  A    between atoms: _140  and  _141
REMARK   57  A    between atoms: _147  and  _149
REMARK   58  A    between atoms: _149  and  _150
REMARK   59  A    between atoms: _149  and  _152
REMARK   60  A    between atoms: _152  and  _153
REMARK   61  A    between atoms: _159  and  _161
REMARK   62  A    between atoms: _161  and  _162
REMARK   63  A    between atoms: _161  and  _164
REMARK   64  A    between atoms: _164  and  _165
REMARK   65  A    between atoms: _165  and  _166
REMARK   66  A    between atoms: _166  and  _167
REMARK   67  A    between atoms: _176  and  _178
REMARK   68  A    between atoms: _178  and  _179
REMARK   69  A    between atoms: _178  and  _181
REMARK   70  A    between atoms: _181  and  _182
REMARK   71  A    between atoms: _187  and  _189
REMARK   72  A    between atoms: _189  and  _190
REMARK   73  A    between atoms: _189  and  _192
REMARK   74  A    between atoms: _192  and  _193
REMARK   75  A    between atoms: _196  and  _198
REMARK   76  A    between atoms: _198  and  _199
REMARK   77  A    between atoms: _198  and  _201
REMARK   78  A    between atoms: _201  and  _202
REMARK   79  A    between atoms: _205  and  _207
REMARK   80  A    between atoms: _207  and  _208
REMARK   81  A    between atoms: _207  and  _210
REMARK   82  A    between atoms: _210  and  _211
REMARK   83  A    between atoms: _216  and  _218
REMARK   84  A    between atoms: _218  and  _219
REMARK   85  A    between atoms: _218  and  _221
REMARK   86  A    between atoms: _221  and  _222
REMARK   87  A    between atoms: _227  and  _228
REMARK   88  A    between atoms: _230  and  _232
REMARK   89  A    between atoms: _232  and  _233
REMARK   90  A    between atoms: _232  and  _235
REMARK   91  A    between atoms: _235  and  _236
REMARK   92  A    between atoms: _239  and  _241
REMARK   93  A    between atoms: _241  and  _242
REMARK   94  A    between atoms: _241  and  _244
REMARK   95  A    between atoms: _244  and  _245
REMARK   96  A    between atoms: _250  and  _252
REMARK   97  A    between atoms: _252  and  _253
REMARK   98  A    between atoms: _252  and  _255
REMARK   99  A    between atoms: _255  and  _256
REMARK  100  A    between atoms: _261  and  _263
REMARK  101  A    between atoms: _263  and  _264
REMARK  102  A    between atoms: _263  and  _266
REMARK  103  A    between atoms: _266  and  _267
REMARK  104  A    between atoms: _270  and  _272
REMARK  105  A    between atoms: _272  and  _273
REMARK  106  A    between atoms: _272  and  _275
REMARK  107  A    between atoms: _278  and  _280
REMARK  108  A    between atoms: _280  and  _281
REMARK  109  A    between atoms: _280  and  _283
REMARK  110  A    between atoms: _283  and  _284
REMARK  111  A    between atoms: _287  and  _289
REMARK  112  A    between atoms: _289  and  _290
REMARK  113  A    between atoms: _289  and  _292
REMARK  114  A    between atoms: _292  and  _293
REMARK  115  A    between atoms: _293  and  _294
REMARK  116  A    between atoms: _297  and  _299
REMARK  117  A    between atoms: _299  and  _300
REMARK  118  A    between atoms: _303  and  _305
REMARK  119  A    between atoms: _305  and  _306
REMARK  120  A    between atoms: _305  and  _308
REMARK  121  A    between atoms: _308  and  _309
REMARK  122  A    between atoms: _312  and  _314
REMARK  123  A    between atoms: _314  and  _315
REMARK  124  A    between atoms: _314  and  _317
REMARK  125  A    between atoms: _317  and  _318
REMARK  126  A    between atoms: _318  and  _319
REMARK  127  A    between atoms: _322  and  _324
REMARK  128  A    between atoms: _324  and  _325
REMARK  129  A    between atoms: _324  and  _327
REMARK  130  A    between atoms: _327  and  _328
REMARK  131  A    between atoms: _333  and  _335
REMARK  132  A    between atoms: _335  and  _336
REMARK  133  A    between atoms: _338  and  _340
REMARK  134  A    between atoms: _340  and  _341
REMARK  135  A    between atoms: _340  and  _343
REMARK  136  A    between atoms: _346  and  _348
REMARK  137  A    between atoms: _348  and  _349
REMARK  138  A    between atoms: _352  and  _354
REMARK  139  A    between atoms: _354  and  _355
REMARK  140  A    between atoms: _354  and  _357
REMARK  141  A    between atoms: _357  and  _358
REMARK  142  A    between atoms: _363  and  _365
REMARK  143  A    between atoms: _365  and  _366
REMARK  144  A    between atoms: _365  and  _368
REMARK  145  A    between atoms: _368  and  _369
REMARK  146  A    between atoms: _369  and  _370
REMARK  147  A    between atoms: _370  and  _371
REMARK  148  A    between atoms: _371  and  _372
REMARK  149  A    between atoms: _376  and  _378
REMARK  150  A    between atoms: _378  and  _379
REMARK  151  A    between atoms: _378  and  _381
REMARK  152  A    between atoms: _381  and  _382
REMARK  153  A    between atoms: _385  and  _387
REMARK  154  A    between atoms: _387  and  _388
REMARK  155  A    between atoms: _387  and  _390
REMARK  156  A    between atoms: _390  and  _391
REMARK  157  A    between atoms: _396  and  _398
REMARK  158  A    between atoms: _398  and  _399
REMARK  159  A    between atoms: _401  and  _403
REMARK  160  A    between atoms: _403  and  _404
REMARK  161  A    between atoms: _403  and  _406
REMARK  162  A    between atoms: _406  and  _407
REMARK  163  A    between atoms: _407  and  _408
REMARK  164  A    between atoms: _408  and  _409
REMARK  165  A    between atoms: _409  and  _410
REMARK  166  A    between atoms: _414  and  _416
REMARK  167  A    between atoms: _416  and  _417
REMARK  168  A    between atoms: _416  and  _419
REMARK  169  A    between atoms: _419  and  _420
REMARK  170  A    between atoms: _420  and  _421
REMARK  171  A    between atoms: _421  and  _422
REMARK  172  A    between atoms: _431  and  _433
REMARK  173  A    between atoms: _433  and  _434
REMARK  174  A    between atoms: _433  and  _436
REMARK  175  A    between atoms: _436  and  _437
REMARK  176  A    between atoms: _442  and  _444
REMARK  177  A    between atoms: _444  and  _445
REMARK  178  A    between atoms: _444  and  _447
REMARK  179  A    between atoms: _447  and  _448
REMARK  180  A    between atoms: _453  and  _454
REMARK  181  A    between atoms: _456  and  _458
REMARK  182  A    between atoms: _458  and  _459
REMARK  183  A    between atoms: _458  and  _461
REMARK  184  A    between atoms: _461  and  _462
REMARK  185  A    between atoms: _462  and  _463
REMARK  186  A    between atoms: _463  and  _464
REMARK  187  A    between atoms: _464  and  _465
REMARK  188  A    between atoms: _469  and  _471
REMARK  189  A    between atoms: _471  and  _472
REMARK  190  A    between atoms: _471  and  _474
REMARK  191  A    between atoms: _474  and  _475
REMARK  192  A    between atoms: _477  and  _479
REMARK  193  A    between atoms: _479  and  _480
REMARK  194  A    between atoms: _479  and  _482
REMARK  195  A    between atoms: _482  and  _483
REMARK  196  A    between atoms: _486  and  _488
REMARK  197  A    between atoms: _488  and  _489
REMARK  198  A    between atoms: _488  and  _491
REMARK  199  A    between atoms: _491  and  _492
REMARK  200  A    between atoms: _492  and  _493
REMARK  201  A    between atoms: _496  and  _498
REMARK  202  A    between atoms: _498  and  _499
REMARK  203  A    between atoms: _502  and  _504
REMARK  204  A    between atoms: _504  and  _505
REMARK  205  A    between atoms: _504  and  _507
REMARK  206  A    between atoms: _507  and  _508
REMARK  207  A    between atoms: _510  and  _512
REMARK  208  A    between atoms: _512  and  _513
REMARK  209  A    between atoms: _515  and  _517
REMARK  210  A    between atoms: _517  and  _518
REMARK  211  A    between atoms: _517  and  _520
REMARK  212  A    between atoms: _520  and  _521
REMARK  213  A    between atoms: _524  and  _526
REMARK  214  A    between atoms: _526  and  _527
REMARK  215  A    between atoms: _529  and  _531
REMARK  216  A    between atoms: _531  and  _532
REMARK  217  A    between atoms: _531  and  _534
REMARK  218  A    between atoms: _534  and  _535
REMARK  219  A    between atoms: _540  and  _542
REMARK  220  A    between atoms: _542  and  _543
REMARK  221  A    between atoms: _542  and  _545
REMARK  222  A    between atoms: _545  and  _546
REMARK  223  A    between atoms: _546  and  _547
REMARK  224  A    between atoms: _554  and  _555
REMARK  225  A    between atoms: _555  and  _571
REMARK  226  A    between atoms: _556  and  _558
REMARK  227  A    between atoms: _558  and  _559
REMARK  228  A    between atoms: _559  and  _560
REMARK  229  A    between atoms: _564  and  _566
REMARK  230  A    between atoms: _566  and  _567
REMARK  231  A    between atoms: _566  and  _574
REMARK  232  A    between atoms: _567  and  _568
REMARK  233  A    between atoms: _568  and  _569
REMARK  234  A    between atoms: _569  and  _570
REMARK  235  A    between atoms: _570  and  _571
REMARK  236  A    between atoms: _576  and  _578
REMARK  237  A    between atoms: _578  and  _579
REMARK  238  A    between atoms: _578  and  _581
REMARK  239  A    between atoms: _581  and  _582
REMARK  240  A    between atoms: _585  and  _587
REMARK  241  A    between atoms: _587  and  _588
REMARK  242  A    between atoms: _590  and  _592
REMARK  243  A    between atoms: _592  and  _593
REMARK  244  A    between atoms: _596  and  _598
REMARK  245  A    between atoms: _598  and  _599
REMARK  246  A    between atoms: _598  and  _601
REMARK  247  A    between atoms: _601  and  _602
REMARK  248  A    between atoms: _607  and  _608
REMARK                            x       y       z     vdW  Elec       q    Type
REMARK                         _______ _______ _______ _____ _____    ______ ____
ROOT
ATOM      1  CA  GLY A   7      23.542  22.272  23.672  0.00  0.00    +0.176 C 
ENDROOT
BRANCH   1   2
ATOM      2  C   GLY A   7      23.086  21.928  22.267  0.00  0.00    +0.243 C 
ATOM      3  O   GLY A   7      21.904  21.653  22.043  0.00  0.00    -0.273 OA
ATOM      4  N   ASN A   8      24.025  21.932  21.318  0.00  0.00    -0.297 N 
ATOM      5  H   ASN A   8      24.988  22.240  21.560  0.00  0.00    +0.150 HD
BRANCH   4   6
ATOM      6  CA  ASN A   8      23.733  21.513  19.945  0.00  0.00    +0.158 C 
BRANCH   6   7
ATOM      7  C   ASN A   8      22.931  20.206  19.862  0.00  0.00    +0.241 C 
ATOM      8  N   MET A   9      23.369  19.206  20.622  0.00  0.00    -0.297 N 
ATOM      9  H   MET A   9      24.191  19.370  21.237  0.00  0.00    +0.150 HD
ATOM     10  O   ASN A   8      21.926  20.120  19.144  0.00  0.00    -0.273 OA
BRANCH   8  11
ATOM     11  CA  MET A   9      22.743  17.890  20.627  0.00  0.00    +0.149 C 
BRANCH  11  12
ATOM     12  C   MET A   9      21.333  17.940  21.201  0.00  0.00    +0.241 C 
ATOM     13  N   UNK A  10      21.156  18.728  22.261  0.00  0.00    -0.298 N 
ATOM     14  H   UNK A  10      21.978  19.232  22.652  0.00  0.00    +0.150 HD
ATOM     15  O   MET A   9      20.421  17.293  20.674  0.00  0.00    -0.273 OA
BRANCH  13  16
ATOM     16  C   UNK A  10      19.852  18.912  22.896  0.00  0.00    +0.137 C 
BRANCH  16  17
ATOM     17  C   UNK A  10      18.810  19.461  21.920  0.00  0.00    +0.227 C 
ATOM     18  O   UNK A  10      17.672  18.969  21.871  0.00  0.00    -0.286 OA
ENDBRANCH  16  17
BRANCH  16  19
ATOM     19  C   UNK A  10      19.979  19.844  24.104  0.00  0.00    +0.028 C 
BRANCH  19  20
ATOM     20  C   UNK A  10      20.998  19.390  25.146  0.00  0.00    -0.000 C 
BRANCH  20  21
ATOM     21  C   UNK A  10      21.180  20.448  26.221  0.00  0.00    -0.023 C 
BRANCH  21  22
ATOM     22  C   UNK A  10      22.424  20.182  27.067  0.00  0.00    -0.081 C 
BRANCH  22  23
ATOM     23  N   UNK A  10      22.625  21.315  28.011  0.00  0.00    +0.387 N 
ATOM     24  H   UNK A  10      21.797  21.943  27.981  0.00  0.00    -0.084 HD
ATOM     25  H   UNK A  10      22.744  20.946  28.976  0.00  0.00    -0.084 HD
BRANCH  23  26
ATOM     26  C   UNK A  10      23.715  21.998  27.658  0.00  0.00    -0.051 C 
BRANCH  26  27
ATOM     27  C   UNK A  10      23.922  23.216  28.524  0.00  0.00    -0.007 C 
ATOM     28  C   UNK A  10      25.043  24.024  28.303  0.00  0.00    +0.023 C 
ATOM     29  C   UNK A  10      25.256  25.167  29.071  0.00  0.00    +0.091 C 
ATOM     30  N   UNK A  10      24.365  25.490  30.073  0.00  0.00    -0.263 NA
ATOM     31  C   UNK A  10      23.263  24.693  30.316  0.00  0.00    +0.164 C 
ATOM     32  C   UNK A  10      22.322  25.071  31.420  0.00  0.00    +0.035 C 
ATOM     33  C   UNK A  10      23.027  23.554  29.547  0.00  0.00    +0.189 C 
ATOM     34  O   UNK A  10      22.030  22.856  29.780  0.00  0.00    -0.290 OA
BRANCH  28  35
ATOM     35  C   UNK A  10      26.012  23.715  27.198  0.00  0.00    +0.181 C 
BRANCH  35  36
ATOM     36  O   UNK A  10      25.672  24.398  25.969  0.00  0.00    -0.265 OA
BRANCH  36  37
ATOM     37  P   UNK A  10      26.727  24.657  24.785  0.00  0.00    +0.533 P 
ATOM     38  O   UNK A  10      27.247  23.322  24.407  0.00  0.00    -0.115 OA
ATOM     39  O   UNK A  10      27.727  25.545  25.411  0.00  0.00    -0.115 OA
ATOM     40  O   UNK A  10      25.866  25.287  23.782  0.00  0.00    -0.222 OA
ENDBRANCH  36  37
ENDBRANCH  35  36
ENDBRANCH  28  35
ENDBRANCH  26  27
ENDBRANCH  23  26
ENDBRANCH  22  23
ENDBRANCH  21  22
ENDBRANCH  20  21
ENDBRANCH  19  20
ENDBRANCH  16  19
ENDBRANCH  13  16
ENDBRANCH  11  12
BRANCH  11  41
ATOM     41  CB  MET A   9      23.609  16.904  21.405  0.00  0.00    +0.041 C 
BRANCH  41  42
ATOM     42  CG  MET A   9      24.999  16.754  20.822  0.00  0.00    +0.060 C 
BRANCH  42  43
ATOM     43  SD  MET A   9      26.056  15.905  21.983  0.00  0.00    -0.139 S 
ATOM     44  CE  MET A   9      27.666  16.127  21.219  0.00  0.00    +0.069 C 
ENDBRANCH  42  43
ENDBRANCH  41  42
ENDBRANCH  11  41
ENDBRANCH   8  11
ENDBRANCH   6   7
BRANCH   6  45
ATOM     45  CB  ASN A   8      25.003  21.463  19.063  0.00  0.00    +0.114 C 
BRANCH  45  46
ATOM     46  CG  ASN A   8      26.164  20.659  19.681  0.00  0.00    +0.222 C 
ATOM     47  ND2 ASN A   8      25.944  20.050  20.838  0.00  0.00    -0.329 N 
ATOM     48 HD21 ASN A   8      25.013  20.125  21.296  0.00  0.00    +0.145 HD
ATOM     49 HD22 ASN A   8      26.702  19.497  21.287  0.00  0.00    +0.145 HD
ATOM     50  OD1 ASN A   8      27.258  20.598  19.097  0.00  0.00    -0.275 OA
ENDBRANCH  45  46
ENDBRANCH   6  45
ENDBRANCH   4   6
ENDBRANCH   1   2
BRANCH   1  52
ATOM     51  C   THR A   6      24.883  20.241  23.843  0.00  0.00    +0.243 C 
ATOM     52  N   GLY A   7      24.784  21.562  23.968  0.00  0.00    -0.295 N 
ATOM     53  H   GLY A   7      25.613  22.104  24.285  0.00  0.00    +0.150 HD
ATOM     54  O   THR A   6      23.920  19.514  23.583  0.00  0.00    -0.273 OA
BRANCH  51  55
ATOM     55  CA  THR A   6      26.280  19.659  23.996  0.00  0.00    +0.176 C 
BRANCH  55  57
ATOM     56  C   GLY A   5      28.302  20.416  22.852  0.00  0.00    +0.243 C 
ATOM     57  N   THR A   6      27.268  20.679  23.639  0.00  0.00    -0.295 N 
ATOM     58  H   THR A   6      27.155  21.642  24.015  0.00  0.00    +0.150 HD
ATOM     59  O   GLY A   5      28.571  19.284  22.460  0.00  0.00    -0.273 OA
BRANCH  56  60
ATOM     60  CA  GLY A   5      29.188  21.590  22.479  0.00  0.00    +0.176 C 
BRANCH  60  62
ATOM     61  C   SER A   4      30.910  20.462  21.192  0.00  0.00    +0.243 C 
ATOM     62  N   GLY A   5      30.539  21.083  22.308  0.00  0.00    -0.295 N 
ATOM     63  H   GLY A   5      31.231  21.208  23.075  0.00  0.00    +0.150 HD
ATOM     64  O   SER A   4      30.284  20.538  20.125  0.00  0.00    -0.273 OA
BRANCH  61  65
ATOM     65  CA  SER A   4      32.196  19.663  21.283  0.00  0.00    +0.178 C 
BRANCH  65  67
ATOM     66  C   ALA A   3      34.499  20.375  21.193  0.00  0.00    +0.241 C 
ATOM     67  N   SER A   4      33.295  20.506  21.730  0.00  0.00    -0.295 N 
ATOM     68  H   SER A   4      33.134  21.214  22.474  0.00  0.00    +0.150 HD
ATOM     69  O   ALA A   3      34.754  19.517  20.347  0.00  0.00    -0.273 OA
BRANCH  66  70
ATOM     70  CA  ALA A   3      35.571  21.371  21.659  0.00  0.00    +0.149 C 
ATOM     71  CB  ALA A   3      36.101  20.988  23.021  0.00  0.00    +0.031 C 
BRANCH  70  73
ATOM     72  C   GLU A   2      34.453  23.269  20.605  0.00  0.00    +0.241 C 
ATOM     73  N   ALA A   3      35.078  22.751  21.663  0.00  0.00    -0.297 N 
ATOM     74  H   ALA A   3      35.219  23.339  22.509  0.00  0.00    +0.150 HD
ATOM     75  O   GLU A   2      34.176  22.613  19.613  0.00  0.00    -0.273 OA
BRANCH  72  76
ATOM     76  CA  GLU A   2      34.098  24.747  20.662  0.00  0.00    +0.149 C 
BRANCH  76  79
ATOM     77  C   THR A   1      36.221  25.894  20.309  0.00  0.00    +0.241 C 
ATOM     78  O   THR A   1      36.551  25.734  21.484  0.00  0.00    -0.274 OA
ATOM     79  N   GLU A   2      35.050  25.474  19.827  0.00  0.00    -0.297 N 
ATOM     80  H   GLU A   2      34.810  25.669  18.834  0.00  0.00    +0.150 HD
BRANCH  77  81
ATOM     81  CA  THR A   1      37.166  26.607  19.336  0.00  0.00    +0.172 C 
BRANCH  81  82
ATOM     82  N   THR A   1      37.187  26.046  17.982  0.00  0.00    -0.236 NA
ATOM     83  H   THR A   1      36.360  26.159  17.361  0.00  0.00    +0.142 HD
ENDBRANCH  81  82
BRANCH  81  84
ATOM     84  CB  THR A   1      36.857  28.117  19.332  0.00  0.00    +0.135 C 
ATOM     85  CG2 THR A   1      37.890  28.891  18.517  0.00  0.00    +0.034 C 
BRANCH  84  86
ATOM     86  OG1 THR A   1      35.558  28.342  18.778  0.00  0.00    -0.383 OA
ATOM     87  HG1 THR A   1      35.532  27.999  17.850  0.00  0.00    +0.210 HD
ENDBRANCH  84  86
ENDBRANCH  81  84
ENDBRANCH  77  81
ENDBRANCH  76  79
BRANCH  76  88
ATOM     88  CB  GLU A   2      32.660  24.976  20.180  0.00  0.00    +0.041 C 
BRANCH  88  89
ATOM     89  CG  GLU A   2      31.586  24.448  21.123  0.00  0.00    +0.116 C 
BRANCH  89  90
ATOM     90  CD  GLU A   2      31.419  25.325  22.348  0.00  0.00    +0.365 C 
ATOM     91  OE2 GLU A   2      32.053  25.018  23.374  0.00  0.00    -0.246 OA
ATOM     92  OE1 GLU A   2      30.685  26.336  22.282  0.00  0.00    -0.246 OA
ENDBRANCH  89  90
ENDBRANCH  88  89
ENDBRANCH  76  88
ENDBRANCH  72  76
ENDBRANCH  70  73
ENDBRANCH  66  70
ENDBRANCH  65  67
BRANCH  65  93
ATOM     93  CB  SER A   4      32.033  18.469  22.226  0.00  0.00    +0.166 C 
BRANCH  93  94
ATOM     94  OG  SER A   4      30.799  17.806  22.022  0.00  0.00    -0.380 OA
ATOM     95  H   SER A   4      30.055  18.438  22.187  0.00  0.00    +0.211 HD
ENDBRANCH  93  94
ENDBRANCH  65  93
ENDBRANCH  61  65
ENDBRANCH  60  62
ENDBRANCH  56  60
ENDBRANCH  55  57
BRANCH  55  96
ATOM     96  CB  THR A   6      26.474  19.135  25.425  0.00  0.00    +0.137 C 
ATOM     97  CG2 THR A   6      27.743  18.300  25.526  0.00  0.00    +0.034 C 
BRANCH  96  98
ATOM     98  OG1 THR A   6      26.550  20.243  26.326  0.00  0.00    -0.382 OA
ATOM     99  HG1 THR A   6      26.675  19.908  27.249  0.00  0.00    +0.210 HD
ENDBRANCH  96  98
ENDBRANCH  55  96
ENDBRANCH  51  55
ENDBRANCH   1  52
TORSDOF 44
REMARK  Name = ../refined-set-2016/3g2i/3g2i_pocket.pdb
REMARK  248 active torsions:
REMARK  status: ('A' for Active; 'I' for Inactive)
REMARK    1  A    between atoms: _1  and  _3
REMARK    2  A    between atoms: _3  and  _4
REMARK    3  A    between atoms: _3  and  _6
REMARK    4  A    between atoms: _6  and  _7
REMARK    5  A    between atoms: _12  and  _13
REMARK    6  A    between atoms: _15  and  _17
REMARK    7  A    between atoms: _17  and  _18
REMARK    8  A    between atoms: _17  and  _20
REMARK    9  A    between atoms: _20  and  _21
REMARK   10  A    between atoms: _21  and  _22
REMARK   11  A    between atoms: _25  and  _27
REMARK   12  A    between atoms: _27  and  _28
REMARK   13  A    between atoms: _27  and  _30
REMARK   14  A    between atoms: _30  and  _31
REMARK   15  A    between atoms: _36  and  _38
REMARK   16  A    between atoms: _38  and  _39
REMARK   17  A    between atoms: _41  and  _43
REMARK   18  A    between atoms: _43  and  _44
REMARK   19  A    between atoms: _46  and  _48
REMARK   20  A    between atoms: _48  and  _49
REMARK   21  A    between atoms: _48  and  _51
REMARK   22  A    between atoms: _51  and  _52
REMARK   23  A    between atoms: _55  and  _57
REMARK   24  A    between atoms: _57  and  _58
REMARK   25  A    between atoms: _60  and  _62
REMARK   26  A    between atoms: _62  and  _63
REMARK   27  A    between atoms: _62  and  _65
REMARK   28  A    between atoms: _65  and  _66
REMARK   29  A    between atoms: _66  and  _67
REMARK   30  A    between atoms: _67  and  _68
REMARK   31  A    between atoms: _77  and  _79
REMARK   32  A    between atoms: _79  and  _80
REMARK   33  A    between atoms: _79  and  _82
REMARK   34  A    between atoms: _82  and  _83
REMARK   35  A    between atoms: _86  and  _88
REMARK   36  A    between atoms: _88  and  _89
REMARK   37  A    between atoms: _92  and  _94
REMARK   38  A    between atoms: _94  and  _95
REMARK   39  A    between atoms: _94  and  _97
REMARK   40  A    between atoms: _97  and  _98
REMARK   41  A    between atoms: _104  and  _106
REMARK   42  A    between atoms: _106  and  _107
REMARK   43  A    between atoms: _106  and  _109
REMARK   44  A    between atoms: _109  and  _110
REMARK   45  A    between atoms: _115  and  _117
REMARK   46  A    between atoms: _117  and  _118
REMARK   47  A    between atoms: _117  and  _120
REMARK   48  A    between atoms: _120  and  _121
REMARK   49  A    between atoms: _124  and  _126
REMARK   50  A    between atoms: _126  and  _127
REMARK   51  A    between atoms: _126  and  _129
REMARK   52  A    between atoms: _129  and  _130
REMARK   53  A    between atoms: _135  and  _137
REMARK   54  A    between atoms: _137  and  _138
REMARK   55  A    between atoms: _137  and  _140
REMARK   56  A    between atoms: _140  and  _141
REMARK   57  A    between atoms: _147  and  _149
REMARK   58  A    between atoms: _149  and  _150
REMARK   59  A    between atoms: _149  and  _152
REMARK   60  A    between atoms: _152  and  _153
REMARK   61  A    between atoms: _159  and  _161
REMARK   62  A    between atoms: _161  and  _162
REMARK   63  A    between atoms: _161  and  _164
REMARK   64  A    between atoms: _164  and  _165
REMARK   65  A    between atoms: _165  and  _166
REMARK   66  A    between atoms: _166  and  _167
REMARK   67  A    between atoms: _176  and  _178
REMARK   68  A    between atoms: _178  and  _179
REMARK   69  A    between atoms: _178  and  _181
REMARK   70  A    between atoms: _181  and  _182
REMARK   71  A    between atoms: _187  and  _189
REMARK   72  A    between atoms: _189  and  _190
REMARK   73  A    between atoms: _189  and  _192
REMARK   74  A    between atoms: _192  and  _193
REMARK   75  A    between atoms: _196  and  _198
REMARK   76  A    between atoms: _198  and  _199
REMARK   77  A    between atoms: _198  and  _201
REMARK   78  A    between atoms: _201  and  _202
REMARK   79  A    between atoms: _205  and  _207
REMARK   80  A    between atoms: _207  and  _208
REMARK   81  A    between atoms: _207  and  _210
REMARK   82  A    between atoms: _210  and  _211
REMARK   83  A    between atoms: _216  and  _218
REMARK   84  A    between atoms: _218  and  _219
REMARK   85  A    between atoms: _218  and  _221
REMARK   86  A    between atoms: _221  and  _222
REMARK   87  A    between atoms: _227  and  _228
REMARK   88  A    between atoms: _230  and  _232
REMARK   89  A    between atoms: _232  and  _233
REMARK   90  A    between atoms: _232  and  _235
REMARK   91  A    between atoms: _235  and  _236
REMARK   92  A    between atoms: _239  and  _241
REMARK   93  A    between atoms: _241  and  _242
REMARK   94  A    between atoms: _241  and  _244
REMARK   95  A    between atoms: _244  and  _245
REMARK   96  A    between atoms: _250  and  _252
REMARK   97  A    between atoms: _252  and  _253
REMARK   98  A    between atoms: _252  and  _255
REMARK   99  A    between atoms: _255  and  _256
REMARK  100  A    between atoms: _261  and  _263
REMARK  101  A    between atoms: _263  and  _264
REMARK  102  A    between atoms: _263  and  _266
REMARK  103  A    between atoms: _266  and  _267
REMARK  104  A    between atoms: _270  and  _272
REMARK  105  A    between atoms: _272  and  _273
REMARK  106  A    between atoms: _272  and  _275
REMARK  107  A    between atoms: _278  and  _280
REMARK  108  A    between atoms: _280  and  _281
REMARK  109  A    between atoms: _280  and  _283
REMARK  110  A    between atoms: _283  and  _284
REMARK  111  A    between atoms: _287  and  _289
REMARK  112  A    between atoms: _289  and  _290
REMARK  113  A    between atoms: _289  and  _292
REMARK  114  A    between atoms: _292  and  _293
REMARK  115  A    between atoms: _293  and  _294
REMARK  116  A    between atoms: _297  and  _299
REMARK  117  A    between atoms: _299  and  _300
REMARK  118  A    between atoms: _303  and  _305
REMARK  119  A    between atoms: _305  and  _306
REMARK  120  A    between atoms: _305  and  _308
REMARK  121  A    between atoms: _308  and  _309
REMARK  122  A    between atoms: _312  and  _314
REMARK  123  A    between atoms: _314  and  _315
REMARK  124  A    between atoms: _314  and  _317
REMARK  125  A    between atoms: _317  and  _318
REMARK  126  A    between atoms: _318  and  _319
REMARK  127  A    between atoms: _322  and  _324
REMARK  128  A    between atoms: _324  and  _325
REMARK  129  A    between atoms: _324  and  _327
REMARK  130  A    between atoms: _327  and  _328
REMARK  131  A    between atoms: _333  and  _335
REMARK  132  A    between atoms: _335  and  _336
REMARK  133  A    between atoms: _338  and  _340
REMARK  134  A    between atoms: _340  and  _341
REMARK  135  A    between atoms: _340  and  _343
REMARK  136  A    between atoms: _346  and  _348
REMARK  137  A    between atoms: _348  and  _349
REMARK  138  A    between atoms: _352  and  _354
REMARK  139  A    between atoms: _354  and  _355
REMARK  140  A    between atoms: _354  and  _357
REMARK  141  A    between atoms: _357  and  _358
REMARK  142  A    between atoms: _363  and  _365
REMARK  143  A    between atoms: _365  and  _366
REMARK  144  A    between atoms: _365  and  _368
REMARK  145  A    between atoms: _368  and  _369
REMARK  146  A    between atoms: _369  and  _370
REMARK  147  A    between atoms: _370  and  _371
REMARK  148  A    between atoms: _371  and  _372
REMARK  149  A    between atoms: _376  and  _378
REMARK  150  A    between atoms: _378  and  _379
REMARK  151  A    between atoms: _378  and  _381
REMARK  152  A    between atoms: _381  and  _382
REMARK  153  A    between atoms: _385  and  _387
REMARK  154  A    between atoms: _387  and  _388
REMARK  155  A    between atoms: _387  and  _390
REMARK  156  A    between atoms: _390  and  _391
REMARK  157  A    between atoms: _396  and  _398
REMARK  158  A    between atoms: _398  and  _399
REMARK  159  A    between atoms: _401  and  _403
REMARK  160  A    between atoms: _403  and  _404
REMARK  161  A    between atoms: _403  and  _406
REMARK  162  A    between atoms: _406  and  _407
REMARK  163  A    between atoms: _407  and  _408
REMARK  164  A    between atoms: _408  and  _409
REMARK  165  A    between atoms: _409  and  _410
REMARK  166  A    between atoms: _414  and  _416
REMARK  167  A    between atoms: _416  and  _417
REMARK  168  A    between atoms: _416  and  _419
REMARK  169  A    between atoms: _419  and  _420
REMARK  170  A    between atoms: _420  and  _421
REMARK  171  A    between atoms: _421  and  _422
REMARK  172  A    between atoms: _431  and  _433
REMARK  173  A    between atoms: _433  and  _434
REMARK  174  A    between atoms: _433  and  _436
REMARK  175  A    between atoms: _436  and  _437
REMARK  176  A    between atoms: _442  and  _444
REMARK  177  A    between atoms: _444  and  _445
REMARK  178  A    between atoms: _444  and  _447
REMARK  179  A    between atoms: _447  and  _448
REMARK  180  A    between atoms: _453  and  _454
REMARK  181  A    between atoms: _456  and  _458
REMARK  182  A    between atoms: _458  and  _459
REMARK  183  A    between atoms: _458  and  _461
REMARK  184  A    between atoms: _461  and  _462
REMARK  185  A    between atoms: _462  and  _463
REMARK  186  A    between atoms: _463  and  _464
REMARK  187  A    between atoms: _464  and  _465
REMARK  188  A    between atoms: _469  and  _471
REMARK  189  A    between atoms: _471  and  _472
REMARK  190  A    between atoms: _471  and  _474
REMARK  191  A    between atoms: _474  and  _475
REMARK  192  A    between atoms: _477  and  _479
REMARK  193  A    between atoms: _479  and  _480
REMARK  194  A    between atoms: _479  and  _482
REMARK  195  A    between atoms: _482  and  _483
REMARK  196  A    between atoms: _486  and  _488
REMARK  197  A    between atoms: _488  and  _489
REMARK  198  A    between atoms: _488  and  _491
REMARK  199  A    between atoms: _491  and  _492
REMARK  200  A    between atoms: _492  and  _493
REMARK  201  A    between atoms: _496  and  _498
REMARK  202  A    between atoms: _498  and  _499
REMARK  203  A    between atoms: _502  and  _504
REMARK  204  A    between atoms: _504  and  _505
REMARK  205  A    between atoms: _504  and  _507
REMARK  206  A    between atoms: _507  and  _508
REMARK  207  A    between atoms: _510  and  _512
REMARK  208  A    between atoms: _512  and  _513
REMARK  209  A    between atoms: _515  and  _517
REMARK  210  A    between atoms: _517  and  _518
REMARK  211  A    between atoms: _517  and  _520
REMARK  212  A    between atoms: _520  and  _521
REMARK  213  A    between atoms: _524  and  _526
REMARK  214  A    between atoms: _526  and  _527
REMARK  215  A    between atoms: _529  and  _531
REMARK  216  A    between atoms: _531  and  _532
REMARK  217  A    between atoms: _531  and  _534
REMARK  218  A    between atoms: _534  and  _535
REMARK  219  A    between atoms: _540  and  _542
REMARK  220  A    between atoms: _542  and  _543
REMARK  221  A    between atoms: _542  and  _545
REMARK  222  A    between atoms: _545  and  _546
REMARK  223  A    between atoms: _546  and  _547
REMARK  224  A    between atoms: _554  and  _555
REMARK  225  A    between atoms: _555  and  _571
REMARK  226  A    between atoms: _556  and  _558
REMARK  227  A    between atoms: _558  and  _559
REMARK  228  A    between atoms: _559  and  _560
REMARK  229  A    between atoms: _564  and  _566
REMARK  230  A    between atoms: _566  and  _567
REMARK  231  A    between atoms: _566  and  _574
REMARK  232  A    between atoms: _567  and  _568
REMARK  233  A    between atoms: _568  and  _569
REMARK  234  A    between atoms: _569  and  _570
REMARK  235  A    between atoms: _570  and  _571
REMARK  236  A    between atoms: _576  and  _578
REMARK  237  A    between atoms: _578  and  _579
REMARK  238  A    between atoms: _578  and  _581
REMARK  239  A    between atoms: _581  and  _582
REMARK  240  A    between atoms: _585  and  _587
REMARK  241  A    between atoms: _587  and  _588
REMARK  242  A    between atoms: _590  and  _592
REMARK  243  A    between atoms: _592  and  _593
REMARK  244  A    between atoms: _596  and  _598
REMARK  245  A    between atoms: _598  and  _599
REMARK  246  A    between atoms: _598  and  _601
REMARK  247  A    between atoms: _601  and  _602
REMARK  248  A    between atoms: _607  and  _608
REMARK                            x       y       z     vdW  Elec       q    Type
REMARK                         _______ _______ _______ _____ _____    ______ ____
ROOT
ATOM      1  C   ASP A   1      32.486  21.977  15.799  0.00  0.00    +0.239 C 
ATOM      2  N   GLY A   2      33.382  21.406  16.599  0.00  0.00    -0.296 N 
ATOM      3  H   GLY A   2      34.387  21.649  16.490  0.00  0.00    +0.150 HD
ATOM      4  O   ASP A   1      31.279  21.712  15.828  0.00  0.00    -0.274 OA
ENDROOT
BRANCH   1   5
ATOM      5  CA  ASP A   1      33.027  22.996  14.812  0.00  0.00    +0.156 C 
BRANCH   5   6
ATOM      6  N   ASP A   1      32.261  22.936  13.583  0.00  0.00    -0.238 NA
ATOM      7  H   ASP A   1      31.223  22.921  13.641  0.00  0.00    +0.142 HD
ENDBRANCH   5   6
BRANCH   5   8
ATOM      8  CB  ASP A   1      32.941  24.396  15.421  0.00  0.00    +0.140 C 
BRANCH   8   9
ATOM      9  CG  ASP A   1      34.028  24.652  16.446  0.00  0.00    +0.367 C 
ATOM     10  OD2 ASP A   1      33.866  25.568  17.263  0.00  0.00    -0.246 OA
ATOM     11  OD1 ASP A   1      35.043  23.924  16.445  0.00  0.00    -0.246 OA
ENDBRANCH   8   9
ENDBRANCH   5   8
ENDBRANCH   1   5
BRANCH   2  12
ATOM     12  CA  GLY A   2      32.990  20.450  17.623  0.00  0.00    +0.176 C 
BRANCH  12  13
ATOM     13  C   GLY A   2      32.131  19.330  17.080  0.00  0.00    +0.243 C 
ATOM     14  N   ALA A   3      31.062  19.020  17.804  0.00  0.00    -0.298 N 
ATOM     15  H   ALA A   3      30.836  19.580  18.651  0.00  0.00    +0.150 HD
ATOM     16  O   GLY A   2      32.416  18.767  16.015  0.00  0.00    -0.273 OA
BRANCH  14  17
ATOM     17  CA  ALA A   3      30.204  17.908  17.429  0.00  0.00    +0.137 C 
ATOM     18  CB  ALA A   3      29.463  17.375  18.637  0.00  0.00    +0.030 C 
BRANCH  17  19
ATOM     19  C   ALA A   3      29.233  18.256  16.297  0.00  0.00    +0.227 C 
ATOM     20  O   ALA A   3      28.578  17.354  15.763  0.00  0.00    -0.286 OA
ENDBRANCH  17  19
ENDBRANCH  14  17
ENDBRANCH  12  13
ENDBRANCH   2  12
TORSDOF 8
REMARK  Name = ../refined-set-2016/3g2i/3g2i_pocket.pdb
REMARK  248 active torsions:
REMARK  status: ('A' for Active; 'I' for Inactive)
REMARK    1  A    between atoms: _1  and  _3
REMARK    2  A    between atoms: _3  and  _4
REMARK    3  A    between atoms: _3  and  _6
REMARK    4  A    between atoms: _6  and  _7
REMARK    5  A    between atoms: _12  and  _13
REMARK    6  A    between atoms: _15  and  _17
REMARK    7  A    between atoms: _17  and  _18
REMARK    8  A    between atoms: _17  and  _20
REMARK    9  A    between atoms: _20  and  _21
REMARK   10  A    between atoms: _21  and  _22
REMARK   11  A    between atoms: _25  and  _27
REMARK   12  A    between atoms: _27  and  _28
REMARK   13  A    between atoms: _27  and  _30
REMARK   14  A    between atoms: _30  and  _31
REMARK   15  A    between atoms: _36  and  _38
REMARK   16  A    between atoms: _38  and  _39
REMARK   17  A    between atoms: _41  and  _43
REMARK   18  A    between atoms: _43  and  _44
REMARK   19  A    between atoms: _46  and  _48
REMARK   20  A    between atoms: _48  and  _49
REMARK   21  A    between atoms: _48  and  _51
REMARK   22  A    between atoms: _51  and  _52
REMARK   23  A    between atoms: _55  and  _57
REMARK   24  A    between atoms: _57  and  _58
REMARK   25  A    between atoms: _60  and  _62
REMARK   26  A    between atoms: _62  and  _63
REMARK   27  A    between atoms: _62  and  _65
REMARK   28  A    between atoms: _65  and  _66
REMARK   29  A    between atoms: _66  and  _67
REMARK   30  A    between atoms: _67  and  _68
REMARK   31  A    between atoms: _77  and  _79
REMARK   32  A    between atoms: _79  and  _80
REMARK   33  A    between atoms: _79  and  _82
REMARK   34  A    between atoms: _82  and  _83
REMARK   35  A    between atoms: _86  and  _88
REMARK   36  A    between atoms: _88  and  _89
REMARK   37  A    between atoms: _92  and  _94
REMARK   38  A    between atoms: _94  and  _95
REMARK   39  A    between atoms: _94  and  _97
REMARK   40  A    between atoms: _97  and  _98
REMARK   41  A    between atoms: _104  and  _106
REMARK   42  A    between atoms: _106  and  _107
REMARK   43  A    between atoms: _106  and  _109
REMARK   44  A    between atoms: _109  and  _110
REMARK   45  A    between atoms: _115  and  _117
REMARK   46  A    between atoms: _117  and  _118
REMARK   47  A    between atoms: _117  and  _120
REMARK   48  A    between atoms: _120  and  _121
REMARK   49  A    between atoms: _124  and  _126
REMARK   50  A    between atoms: _126  and  _127
REMARK   51  A    between atoms: _126  and  _129
REMARK   52  A    between atoms: _129  and  _130
REMARK   53  A    between atoms: _135  and  _137
REMARK   54  A    between atoms: _137  and  _138
REMARK   55  A    between atoms: _137  and  _140
REMARK   56  A    between atoms: _140  and  _141
REMARK   57  A    between atoms: _147  and  _149
REMARK   58  A    between atoms: _149  and  _150
REMARK   59  A    between atoms: _149  and  _152
REMARK   60  A    between atoms: _152  and  _153
REMARK   61  A    between atoms: _159  and  _161
REMARK   62  A    between atoms: _161  and  _162
REMARK   63  A    between atoms: _161  and  _164
REMARK   64  A    between atoms: _164  and  _165
REMARK   65  A    between atoms: _165  and  _166
REMARK   66  A    between atoms: _166  and  _167
REMARK   67  A    between atoms: _176  and  _178
REMARK   68  A    between atoms: _178  and  _179
REMARK   69  A    between atoms: _178  and  _181
REMARK   70  A    between atoms: _181  and  _182
REMARK   71  A    between atoms: _187  and  _189
REMARK   72  A    between atoms: _189  and  _190
REMARK   73  A    between atoms: _189  and  _192
REMARK   74  A    between atoms: _192  and  _193
REMARK   75  A    between atoms: _196  and  _198
REMARK   76  A    between atoms: _198  and  _199
REMARK   77  A    between atoms: _198  and  _201
REMARK   78  A    between atoms: _201  and  _202
REMARK   79  A    between atoms: _205  and  _207
REMARK   80  A    between atoms: _207  and  _208
REMARK   81  A    between atoms: _207  and  _210
REMARK   82  A    between atoms: _210  and  _211
REMARK   83  A    between atoms: _216  and  _218
REMARK   84  A    between atoms: _218  and  _219
REMARK   85  A    between atoms: _218  and  _221
REMARK   86  A    between atoms: _221  and  _222
REMARK   87  A    between atoms: _227  and  _228
REMARK   88  A    between atoms: _230  and  _232
REMARK   89  A    between atoms: _232  and  _233
REMARK   90  A    between atoms: _232  and  _235
REMARK   91  A    between atoms: _235  and  _236
REMARK   92  A    between atoms: _239  and  _241
REMARK   93  A    between atoms: _241  and  _242
REMARK   94  A    between atoms: _241  and  _244
REMARK   95  A    between atoms: _244  and  _245
REMARK   96  A    between atoms: _250  and  _252
REMARK   97  A    between atoms: _252  and  _253
REMARK   98  A    between atoms: _252  and  _255
REMARK   99  A    between atoms: _255  and  _256
REMARK  100  A    between atoms: _261  and  _263
REMARK  101  A    between atoms: _263  and  _264
REMARK  102  A    between atoms: _263  and  _266
REMARK  103  A    between atoms: _266  and  _267
REMARK  104  A    between atoms: _270  and  _272
REMARK  105  A    between atoms: _272  and  _273
REMARK  106  A    between atoms: _272  and  _275
REMARK  107  A    between atoms: _278  and  _280
REMARK  108  A    between atoms: _280  and  _281
REMARK  109  A    between atoms: _280  and  _283
REMARK  110  A    between atoms: _283  and  _284
REMARK  111  A    between atoms: _287  and  _289
REMARK  112  A    between atoms: _289  and  _290
REMARK  113  A    between atoms: _289  and  _292
REMARK  114  A    between atoms: _292  and  _293
REMARK  115  A    between atoms: _293  and  _294
REMARK  116  A    between atoms: _297  and  _299
REMARK  117  A    between atoms: _299  and  _300
REMARK  118  A    between atoms: _303  and  _305
REMARK  119  A    between atoms: _305  and  _306
REMARK  120  A    between atoms: _305  and  _308
REMARK  121  A    between atoms: _308  and  _309
REMARK  122  A    between atoms: _312  and  _314
REMARK  123  A    between atoms: _314  and  _315
REMARK  124  A    between atoms: _314  and  _317
REMARK  125  A    between atoms: _317  and  _318
REMARK  126  A    between atoms: _318  and  _319
REMARK  127  A    between atoms: _322  and  _324
REMARK  128  A    between atoms: _324  and  _325
REMARK  129  A    between atoms: _324  and  _327
REMARK  130  A    between atoms: _327  and  _328
REMARK  131  A    between atoms: _333  and  _335
REMARK  132  A    between atoms: _335  and  _336
REMARK  133  A    between atoms: _338  and  _340
REMARK  134  A    between atoms: _340  and  _341
REMARK  135  A    between atoms: _340  and  _343
REMARK  136  A    between atoms: _346  and  _348
REMARK  137  A    between atoms: _348  and  _349
REMARK  138  A    between atoms: _352  and  _354
REMARK  139  A    between atoms: _354  and  _355
REMARK  140  A    between atoms: _354  and  _357
REMARK  141  A    between atoms: _357  and  _358
REMARK  142  A    between atoms: _363  and  _365
REMARK  143  A    between atoms: _365  and  _366
REMARK  144  A    between atoms: _365  and  _368
REMARK  145  A    between atoms: _368  and  _369
REMARK  146  A    between atoms: _369  and  _370
REMARK  147  A    between atoms: _370  and  _371
REMARK  148  A    between atoms: _371  and  _372
REMARK  149  A    between atoms: _376  and  _378
REMARK  150  A    between atoms: _378  and  _379
REMARK  151  A    between atoms: _378  and  _381
REMARK  152  A    between atoms: _381  and  _382
REMARK  153  A    between atoms: _385  and  _387
REMARK  154  A    between atoms: _387  and  _388
REMARK  155  A    between atoms: _387  and  _390
REMARK  156  A    between atoms: _390  and  _391
REMARK  157  A    between atoms: _396  and  _398
REMARK  158  A    between atoms: _398  and  _399
REMARK  159  A    between atoms: _401  and  _403
REMARK  160  A    between atoms: _403  and  _404
REMARK  161  A    between atoms: _403  and  _406
REMARK  162  A    between atoms: _406  and  _407
REMARK  163  A    between atoms: _407  and  _408
REMARK  164  A    between atoms: _408  and  _409
REMARK  165  A    between atoms: _409  and  _410
REMARK  166  A    between atoms: _414  and  _416
REMARK  167  A    between atoms: _416  and  _417
REMARK  168  A    between atoms: _416  and  _419
REMARK  169  A    between atoms: _419  and  _420
REMARK  170  A    between atoms: _420  and  _421
REMARK  171  A    between atoms: _421  and  _422
REMARK  172  A    between atoms: _431  and  _433
REMARK  173  A    between atoms: _433  and  _434
REMARK  174  A    between atoms: _433  and  _436
REMARK  175  A    between atoms: _436  and  _437
REMARK  176  A    between atoms: _442  and  _444
REMARK  177  A    between atoms: _444  and  _445
REMARK  178  A    between atoms: _444  and  _447
REMARK  179  A    between atoms: _447  and  _448
REMARK  180  A    between atoms: _453  and  _454
REMARK  181  A    between atoms: _456  and  _458
REMARK  182  A    between atoms: _458  and  _459
REMARK  183  A    between atoms: _458  and  _461
REMARK  184  A    between atoms: _461  and  _462
REMARK  185  A    between atoms: _462  and  _463
REMARK  186  A    between atoms: _463  and  _464
REMARK  187  A    between atoms: _464  and  _465
REMARK  188  A    between atoms: _469  and  _471
REMARK  189  A    between atoms: _471  and  _472
REMARK  190  A    between atoms: _471  and  _474
REMARK  191  A    between atoms: _474  and  _475
REMARK  192  A    between atoms: _477  and  _479
REMARK  193  A    between atoms: _479  and  _480
REMARK  194  A    between atoms: _479  and  _482
REMARK  195  A    between atoms: _482  and  _483
REMARK  196  A    between atoms: _486  and  _488
REMARK  197  A    between atoms: _488  and  _489
REMARK  198  A    between atoms: _488  and  _491
REMARK  199  A    between atoms: _491  and  _492
REMARK  200  A    between atoms: _492  and  _493
REMARK  201  A    between atoms: _496  and  _498
REMARK  202  A    between atoms: _498  and  _499
REMARK  203  A    between atoms: _502  and  _504
REMARK  204  A    between atoms: _504  and  _505
REMARK  205  A    between atoms: _504  and  _507
REMARK  206  A    between atoms: _507  and  _508
REMARK  207  A    between atoms: _510  and  _512
REMARK  208  A    between atoms: _512  and  _513
REMARK  209  A    between atoms: _515  and  _517
REMARK  210  A    between atoms: _517  and  _518
REMARK  211  A    between atoms: _517  and  _520
REMARK  212  A    between atoms: _520  and  _521
REMARK  213  A    between atoms: _524  and  _526
REMARK  214  A    between atoms: _526  and  _527
REMARK  215  A    between atoms: _529  and  _531
REMARK  216  A    between atoms: _531  and  _532
REMARK  217  A    between atoms: _531  and  _534
REMARK  218  A    between atoms: _534  and  _535
REMARK  219  A    between atoms: _540  and  _542
REMARK  220  A    between atoms: _542  and  _543
REMARK  221  A    between atoms: _542  and  _545
REMARK  222  A    between atoms: _545  and  _546
REMARK  223  A    between atoms: _546  and  _547
REMARK  224  A    between atoms: _554  and  _555
REMARK  225  A    between atoms: _555  and  _571
REMARK  226  A    between atoms: _556  and  _558
REMARK  227  A    between atoms: _558  and  _559
REMARK  228  A    between atoms: _559  and  _560
REMARK  229  A    between atoms: _564  and  _566
REMARK  230  A    between atoms: _566  and  _567
REMARK  231  A    between atoms: _566  and  _574
REMARK  232  A    between atoms: _567  and  _568
REMARK  233  A    between atoms: _568  and  _569
REMARK  234  A    between atoms: _569  and  _570
REMARK  235  A    between atoms: _570  and  _571
REMARK  236  A    between atoms: _576  and  _578
REMARK  237  A    between atoms: _578  and  _579
REMARK  238  A    between atoms: _578  and  _581
REMARK  239  A    between atoms: _581  and  _582
REMARK  240  A    between atoms: _585  and  _587
REMARK  241  A    between atoms: _587  and  _588
REMARK  242  A    between atoms: _590  and  _592
REMARK  243  A    between atoms: _592  and  _593
REMARK  244  A    between atoms: _596  and  _598
REMARK  245  A    between atoms: _598  and  _599
REMARK  246  A    between atoms: _598  and  _601
REMARK  247  A    between atoms: _601  and  _602
REMARK  248  A    between atoms: _607  and  _608
REMARK                            x       y       z     vdW  Elec       q    Type
REMARK                         _______ _______ _______ _____ _____    ______ ____
ROOT
ATOM      1  CG  TYR A   1      34.181   7.499  28.606  0.00  0.00    -0.020 A 
ATOM      2  CD2 TYR A   1      35.326   8.114  29.120  0.00  0.00    -0.001 A 
ATOM      3  CE2 TYR A   1      35.579   9.461  28.887  0.00  0.00    +0.036 A 
ATOM      4  CZ  TYR A   1      34.685  10.203  28.144  0.00  0.00    +0.134 A 
ATOM      5  CE1 TYR A   1      33.536   9.621  27.634  0.00  0.00    +0.036 A 
ATOM      6  CD1 TYR A   1      33.289   8.273  27.873  0.00  0.00    -0.001 A 
ENDROOT
BRANCH   4   7
ATOM      7  OH  TYR A   1      34.932  11.531  27.907  0.00  0.00    -0.506 OA
ATOM      8  HH  TYR A   1      34.993  11.685  26.931  0.00  0.00    +0.292 HD
ENDBRANCH   4   7
BRANCH   1   9
ATOM      9  CB  TYR A   1      33.893   6.047  28.889  0.00  0.00    +0.051 C 
BRANCH   9  10
ATOM     10  CA  TYR A   1      34.424   5.048  27.870  0.00  0.00    +0.137 C 
BRANCH  10  11
ATOM     11  N   TYR A   1      33.498   4.908  26.742  0.00  0.00    -0.239 NA
ATOM     12  H   TYR A   1      32.638   5.492  26.709  0.00  0.00    +0.142 HD
ENDBRANCH  10  11
BRANCH  10  13
ATOM     13  C   TYR A   1      34.619   3.717  28.585  0.00  0.00    +0.224 C 
ATOM     14  O   TYR A   1      35.738   3.334  28.909  0.00  0.00    -0.287 OA
ENDBRANCH  10  13
ENDBRANCH   9  10
ENDBRANCH   1   9
TORSDOF 5
REMARK  Name = ../refined-set-2016/3g2i/3g2i_pocket.pdb
REMARK  248 active torsions:
REMARK  status: ('A' for Active; 'I' for Inactive)
REMARK    1  A    between atoms: _1  and  _3
REMARK    2  A    between atoms: _3  and  _4
REMARK    3  A    between atoms: _3  and  _6
REMARK    4  A    between atoms: _6  and  _7
REMARK    5  A    between atoms: _12  and  _13
REMARK    6  A    between atoms: _15  and  _17
REMARK    7  A    between atoms: _17  and  _18
REMARK    8  A    between atoms: _17  and  _20
REMARK    9  A    between atoms: _20  and  _21
REMARK   10  A    between atoms: _21  and  _22
REMARK   11  A    between atoms: _25  and  _27
REMARK   12  A    between atoms: _27  and  _28
REMARK   13  A    between atoms: _27  and  _30
REMARK   14  A    between atoms: _30  and  _31
REMARK   15  A    between atoms: _36  and  _38
REMARK   16  A    between atoms: _38  and  _39
REMARK   17  A    between atoms: _41  and  _43
REMARK   18  A    between atoms: _43  and  _44
REMARK   19  A    between atoms: _46  and  _48
REMARK   20  A    between atoms: _48  and  _49
REMARK   21  A    between atoms: _48  and  _51
REMARK   22  A    between atoms: _51  and  _52
REMARK   23  A    between atoms: _55  and  _57
REMARK   24  A    between atoms: _57  and  _58
REMARK   25  A    between atoms: _60  and  _62
REMARK   26  A    between atoms: _62  and  _63
REMARK   27  A    between atoms: _62  and  _65
REMARK   28  A    between atoms: _65  and  _66
REMARK   29  A    between atoms: _66  and  _67
REMARK   30  A    between atoms: _67  and  _68
REMARK   31  A    between atoms: _77  and  _79
REMARK   32  A    between atoms: _79  and  _80
REMARK   33  A    between atoms: _79  and  _82
REMARK   34  A    between atoms: _82  and  _83
REMARK   35  A    between atoms: _86  and  _88
REMARK   36  A    between atoms: _88  and  _89
REMARK   37  A    between atoms: _92  and  _94
REMARK   38  A    between atoms: _94  and  _95
REMARK   39  A    between atoms: _94  and  _97
REMARK   40  A    between atoms: _97  and  _98
REMARK   41  A    between atoms: _104  and  _106
REMARK   42  A    between atoms: _106  and  _107
REMARK   43  A    between atoms: _106  and  _109
REMARK   44  A    between atoms: _109  and  _110
REMARK   45  A    between atoms: _115  and  _117
REMARK   46  A    between atoms: _117  and  _118
REMARK   47  A    between atoms: _117  and  _120
REMARK   48  A    between atoms: _120  and  _121
REMARK   49  A    between atoms: _124  and  _126
REMARK   50  A    between atoms: _126  and  _127
REMARK   51  A    between atoms: _126  and  _129
REMARK   52  A    between atoms: _129  and  _130
REMARK   53  A    between atoms: _135  and  _137
REMARK   54  A    between atoms: _137  and  _138
REMARK   55  A    between atoms: _137  and  _140
REMARK   56  A    between atoms: _140  and  _141
REMARK   57  A    between atoms: _147  and  _149
REMARK   58  A    between atoms: _149  and  _150
REMARK   59  A    between atoms: _149  and  _152
REMARK   60  A    between atoms: _152  and  _153
REMARK   61  A    between atoms: _159  and  _161
REMARK   62  A    between atoms: _161  and  _162
REMARK   63  A    between atoms: _161  and  _164
REMARK   64  A    between atoms: _164  and  _165
REMARK   65  A    between atoms: _165  and  _166
REMARK   66  A    between atoms: _166  and  _167
REMARK   67  A    between atoms: _176  and  _178
REMARK   68  A    between atoms: _178  and  _179
REMARK   69  A    between atoms: _178  and  _181
REMARK   70  A    between atoms: _181  and  _182
REMARK   71  A    between atoms: _187  and  _189
REMARK   72  A    between atoms: _189  and  _190
REMARK   73  A    between atoms: _189  and  _192
REMARK   74  A    between atoms: _192  and  _193
REMARK   75  A    between atoms: _196  and  _198
REMARK   76  A    between atoms: _198  and  _199
REMARK   77  A    between atoms: _198  and  _201
REMARK   78  A    between atoms: _201  and  _202
REMARK   79  A    between atoms: _205  and  _207
REMARK   80  A    between atoms: _207  and  _208
REMARK   81  A    between atoms: _207  and  _210
REMARK   82  A    between atoms: _210  and  _211
REMARK   83  A    between atoms: _216  and  _218
REMARK   84  A    between atoms: _218  and  _219
REMARK   85  A    between atoms: _218  and  _221
REMARK   86  A    between atoms: _221  and  _222
REMARK   87  A    between atoms: _227  and  _228
REMARK   88  A    between atoms: _230  and  _232
REMARK   89  A    between atoms: _232  and  _233
REMARK   90  A    between atoms: _232  and  _235
REMARK   91  A    between atoms: _235  and  _236
REMARK   92  A    between atoms: _239  and  _241
REMARK   93  A    between atoms: _241  and  _242
REMARK   94  A    between atoms: _241  and  _244
REMARK   95  A    between atoms: _244  and  _245
REMARK   96  A    between atoms: _250  and  _252
REMARK   97  A    between atoms: _252  and  _253
REMARK   98  A    between atoms: _252  and  _255
REMARK   99  A    between atoms: _255  and  _256
REMARK  100  A    between atoms: _261  and  _263
REMARK  101  A    between atoms: _263  and  _264
REMARK  102  A    between atoms: _263  and  _266
REMARK  103  A    between atoms: _266  and  _267
REMARK  104  A    between atoms: _270  and  _272
REMARK  105  A    between atoms: _272  and  _273
REMARK  106  A    between atoms: _272  and  _275
REMARK  107  A    between atoms: _278  and  _280
REMARK  108  A    between atoms: _280  and  _281
REMARK  109  A    between atoms: _280  and  _283
REMARK  110  A    between atoms: _283  and  _284
REMARK  111  A    between atoms: _287  and  _289
REMARK  112  A    between atoms: _289  and  _290
REMARK  113  A    between atoms: _289  and  _292
REMARK  114  A    between atoms: _292  and  _293
REMARK  115  A    between atoms: _293  and  _294
REMARK  116  A    between atoms: _297  and  _299
REMARK  117  A    between atoms: _299  and  _300
REMARK  118  A    between atoms: _303  and  _305
REMARK  119  A    between atoms: _305  and  _306
REMARK  120  A    between atoms: _305  and  _308
REMARK  121  A    between atoms: _308  and  _309
REMARK  122  A    between atoms: _312  and  _314
REMARK  123  A    between atoms: _314  and  _315
REMARK  124  A    between atoms: _314  and  _317
REMARK  125  A    between atoms: _317  and  _318
REMARK  126  A    between atoms: _318  and  _319
REMARK  127  A    between atoms: _322  and  _324
REMARK  128  A    between atoms: _324  and  _325
REMARK  129  A    between atoms: _324  and  _327
REMARK  130  A    between atoms: _327  and  _328
REMARK  131  A    between atoms: _333  and  _335
REMARK  132  A    between atoms: _335  and  _336
REMARK  133  A    between atoms: _338  and  _340
REMARK  134  A    between atoms: _340  and  _341
REMARK  135  A    between atoms: _340  and  _343
REMARK  136  A    between atoms: _346  and  _348
REMARK  137  A    between atoms: _348  and  _349
REMARK  138  A    between atoms: _352  and  _354
REMARK  139  A    between atoms: _354  and  _355
REMARK  140  A    between atoms: _354  and  _357
REMARK  141  A    between atoms: _357  and  _358
REMARK  142  A    between atoms: _363  and  _365
REMARK  143  A    between atoms: _365  and  _366
REMARK  144  A    between atoms: _365  and  _368
REMARK  145  A    between atoms: _368  and  _369
REMARK  146  A    between atoms: _369  and  _370
REMARK  147  A    between atoms: _370  and  _371
REMARK  148  A    between atoms: _371  and  _372
REMARK  149  A    between atoms: _376  and  _378
REMARK  150  A    between atoms: _378  and  _379
REMARK  151  A    between atoms: _378  and  _381
REMARK  152  A    between atoms: _381  and  _382
REMARK  153  A    between atoms: _385  and  _387
REMARK  154  A    between atoms: _387  and  _388
REMARK  155  A    between atoms: _387  and  _390
REMARK  156  A    between atoms: _390  and  _391
REMARK  157  A    between atoms: _396  and  _398
REMARK  158  A    between atoms: _398  and  _399
REMARK  159  A    between atoms: _401  and  _403
REMARK  160  A    between atoms: _403  and  _404
REMARK  161  A    between atoms: _403  and  _406
REMARK  162  A    between atoms: _406  and  _407
REMARK  163  A    between atoms: _407  and  _408
REMARK  164  A    between atoms: _408  and  _409
REMARK  165  A    between atoms: _409  and  _410
REMARK  166  A    between atoms: _414  and  _416
REMARK  167  A    between atoms: _416  and  _417
REMARK  168  A    between atoms: _416  and  _419
REMARK  169  A    between atoms: _419  and  _420
REMARK  170  A    between atoms: _420  and  _421
REMARK  171  A    between atoms: _421  and  _422
REMARK  172  A    between atoms: _431  and  _433
REMARK  173  A    between atoms: _433  and  _434
REMARK  174  A    between atoms: _433  and  _436
REMARK  175  A    between atoms: _436  and  _437
REMARK  176  A    between atoms: _442  and  _444
REMARK  177  A    between atoms: _444  and  _445
REMARK  178  A    between atoms: _444  and  _447
REMARK  179  A    between atoms: _447  and  _448
REMARK  180  A    between atoms: _453  and  _454
REMARK  181  A    between atoms: _456  and  _458
REMARK  182  A    between atoms: _458  and  _459
REMARK  183  A    between atoms: _458  and  _461
REMARK  184  A    between atoms: _461  and  _462
REMARK  185  A    between atoms: _462  and  _463
REMARK  186  A    between atoms: _463  and  _464
REMARK  187  A    between atoms: _464  and  _465
REMARK  188  A    between atoms: _469  and  _471
REMARK  189  A    between atoms: _471  and  _472
REMARK  190  A    between atoms: _471  and  _474
REMARK  191  A    between atoms: _474  and  _475
REMARK  192  A    between atoms: _477  and  _479
REMARK  193  A    between atoms: _479  and  _480
REMARK  194  A    between atoms: _479  and  _482
REMARK  195  A    between atoms: _482  and  _483
REMARK  196  A    between atoms: _486  and  _488
REMARK  197  A    between atoms: _488  and  _489
REMARK  198  A    between atoms: _488  and  _491
REMARK  199  A    between atoms: _491  and  _492
REMARK  200  A    between atoms: _492  and  _493
REMARK  201  A    between atoms: _496  and  _498
REMARK  202  A    between atoms: _498  and  _499
REMARK  203  A    between atoms: _502  and  _504
REMARK  204  A    between atoms: _504  and  _505
REMARK  205  A    between atoms: _504  and  _507
REMARK  206  A    between atoms: _507  and  _508
REMARK  207  A    between atoms: _510  and  _512
REMARK  208  A    between atoms: _512  and  _513
REMARK  209  A    between atoms: _515  and  _517
REMARK  210  A    between atoms: _517  and  _518
REMARK  211  A    between atoms: _517  and  _520
REMARK  212  A    between atoms: _520  and  _521
REMARK  213  A    between atoms: _524  and  _526
REMARK  214  A    between atoms: _526  and  _527
REMARK  215  A    between atoms: _529  and  _531
REMARK  216  A    between atoms: _531  and  _532
REMARK  217  A    between atoms: _531  and  _534
REMARK  218  A    between atoms: _534  and  _535
REMARK  219  A    between atoms: _540  and  _542
REMARK  220  A    between atoms: _542  and  _543
REMARK  221  A    between atoms: _542  and  _545
REMARK  222  A    between atoms: _545  and  _546
REMARK  223  A    between atoms: _546  and  _547
REMARK  224  A    between atoms: _554  and  _555
REMARK  225  A    between atoms: _555  and  _571
REMARK  226  A    between atoms: _556  and  _558
REMARK  227  A    between atoms: _558  and  _559
REMARK  228  A    between atoms: _559  and  _560
REMARK  229  A    between atoms: _564  and  _566
REMARK  230  A    between atoms: _566  and  _567
REMARK  231  A    between atoms: _566  and  _574
REMARK  232  A    between atoms: _567  and  _568
REMARK  233  A    between atoms: _568  and  _569
REMARK  234  A    between atoms: _569  and  _570
REMARK  235  A    between atoms: _570  and  _571
REMARK  236  A    between atoms: _576  and  _578
REMARK  237  A    between atoms: _578  and  _579
REMARK  238  A    between atoms: _578  and  _581
REMARK  239  A    between atoms: _581  and  _582
REMARK  240  A    between atoms: _585  and  _587
REMARK  241  A    between atoms: _587  and  _588
REMARK  242  A    between atoms: _590  and  _592
REMARK  243  A    between atoms: _592  and  _593
REMARK  244  A    between atoms: _596  and  _598
REMARK  245  A    between atoms: _598  and  _599
REMARK  246  A    between atoms: _598  and  _601
REMARK  247  A    between atoms: _601  and  _602
REMARK  248  A    between atoms: _607  and  _608
REMARK                            x       y       z     vdW  Elec       q    Type
REMARK                         _______ _______ _______ _____ _____    ______ ____
ROOT
ATOM      1  O   HOH     1      33.254  12.661  26.069  0.00  0.00    +0.000 OA
ENDROOT
TORSDOF 0
REMARK  Name = ../refined-set-2016/3g2i/3g2i_pocket.pdb
REMARK  248 active torsions:
REMARK  status: ('A' for Active; 'I' for Inactive)
REMARK    1  A    between atoms: _1  and  _3
REMARK    2  A    between atoms: _3  and  _4
REMARK    3  A    between atoms: _3  and  _6
REMARK    4  A    between atoms: _6  and  _7
REMARK    5  A    between atoms: _12  and  _13
REMARK    6  A    between atoms: _15  and  _17
REMARK    7  A    between atoms: _17  and  _18
REMARK    8  A    between atoms: _17  and  _20
REMARK    9  A    between atoms: _20  and  _21
REMARK   10  A    between atoms: _21  and  _22
REMARK   11  A    between atoms: _25  and  _27
REMARK   12  A    between atoms: _27  and  _28
REMARK   13  A    between atoms: _27  and  _30
REMARK   14  A    between atoms: _30  and  _31
REMARK   15  A    between atoms: _36  and  _38
REMARK   16  A    between atoms: _38  and  _39
REMARK   17  A    between atoms: _41  and  _43
REMARK   18  A    between atoms: _43  and  _44
REMARK   19  A    between atoms: _46  and  _48
REMARK   20  A    between atoms: _48  and  _49
REMARK   21  A    between atoms: _48  and  _51
REMARK   22  A    between atoms: _51  and  _52
REMARK   23  A    between atoms: _55  and  _57
REMARK   24  A    between atoms: _57  and  _58
REMARK   25  A    between atoms: _60  and  _62
REMARK   26  A    between atoms: _62  and  _63
REMARK   27  A    between atoms: _62  and  _65
REMARK   28  A    between atoms: _65  and  _66
REMARK   29  A    between atoms: _66  and  _67
REMARK   30  A    between atoms: _67  and  _68
REMARK   31  A    between atoms: _77  and  _79
REMARK   32  A    between atoms: _79  and  _80
REMARK   33  A    between atoms: _79  and  _82
REMARK   34  A    between atoms: _82  and  _83
REMARK   35  A    between atoms: _86  and  _88
REMARK   36  A    between atoms: _88  and  _89
REMARK   37  A    between atoms: _92  and  _94
REMARK   38  A    between atoms: _94  and  _95
REMARK   39  A    between atoms: _94  and  _97
REMARK   40  A    between atoms: _97  and  _98
REMARK   41  A    between atoms: _104  and  _106
REMARK   42  A    between atoms: _106  and  _107
REMARK   43  A    between atoms: _106  and  _109
REMARK   44  A    between atoms: _109  and  _110
REMARK   45  A    between atoms: _115  and  _117
REMARK   46  A    between atoms: _117  and  _118
REMARK   47  A    between atoms: _117  and  _120
REMARK   48  A    between atoms: _120  and  _121
REMARK   49  A    between atoms: _124  and  _126
REMARK   50  A    between atoms: _126  and  _127
REMARK   51  A    between atoms: _126  and  _129
REMARK   52  A    between atoms: _129  and  _130
REMARK   53  A    between atoms: _135  and  _137
REMARK   54  A    between atoms: _137  and  _138
REMARK   55  A    between atoms: _137  and  _140
REMARK   56  A    between atoms: _140  and  _141
REMARK   57  A    between atoms: _147  and  _149
REMARK   58  A    between atoms: _149  and  _150
REMARK   59  A    between atoms: _149  and  _152
REMARK   60  A    between atoms: _152  and  _153
REMARK   61  A    between atoms: _159  and  _161
REMARK   62  A    between atoms: _161  and  _162
REMARK   63  A    between atoms: _161  and  _164
REMARK   64  A    between atoms: _164  and  _165
REMARK   65  A    between atoms: _165  and  _166
REMARK   66  A    between atoms: _166  and  _167
REMARK   67  A    between atoms: _176  and  _178
REMARK   68  A    between atoms: _178  and  _179
REMARK   69  A    between atoms: _178  and  _181
REMARK   70  A    between atoms: _181  and  _182
REMARK   71  A    between atoms: _187  and  _189
REMARK   72  A    between atoms: _189  and  _190
REMARK   73  A    between atoms: _189  and  _192
REMARK   74  A    between atoms: _192  and  _193
REMARK   75  A    between atoms: _196  and  _198
REMARK   76  A    between atoms: _198  and  _199
REMARK   77  A    between atoms: _198  and  _201
REMARK   78  A    between atoms: _201  and  _202
REMARK   79  A    between atoms: _205  and  _207
REMARK   80  A    between atoms: _207  and  _208
REMARK   81  A    between atoms: _207  and  _210
REMARK   82  A    between atoms: _210  and  _211
REMARK   83  A    between atoms: _216  and  _218
REMARK   84  A    between atoms: _218  and  _219
REMARK   85  A    between atoms: _218  and  _221
REMARK   86  A    between atoms: _221  and  _222
REMARK   87  A    between atoms: _227  and  _228
REMARK   88  A    between atoms: _230  and  _232
REMARK   89  A    between atoms: _232  and  _233
REMARK   90  A    between atoms: _232  and  _235
REMARK   91  A    between atoms: _235  and  _236
REMARK   92  A    between atoms: _239  and  _241
REMARK   93  A    between atoms: _241  and  _242
REMARK   94  A    between atoms: _241  and  _244
REMARK   95  A    between atoms: _244  and  _245
REMARK   96  A    between atoms: _250  and  _252
REMARK   97  A    between atoms: _252  and  _253
REMARK   98  A    between atoms: _252  and  _255
REMARK   99  A    between atoms: _255  and  _256
REMARK  100  A    between atoms: _261  and  _263
REMARK  101  A    between atoms: _263  and  _264
REMARK  102  A    between atoms: _263  and  _266
REMARK  103  A    between atoms: _266  and  _267
REMARK  104  A    between atoms: _270  and  _272
REMARK  105  A    between atoms: _272  and  _273
REMARK  106  A    between atoms: _272  and  _275
REMARK  107  A    between atoms: _278  and  _280
REMARK  108  A    between atoms: _280  and  _281
REMARK  109  A    between atoms: _280  and  _283
REMARK  110  A    between atoms: _283  and  _284
REMARK  111  A    between atoms: _287  and  _289
REMARK  112  A    between atoms: _289  and  _290
REMARK  113  A    between atoms: _289  and  _292
REMARK  114  A    between atoms: _292  and  _293
REMARK  115  A    between atoms: _293  and  _294
REMARK  116  A    between atoms: _297  and  _299
REMARK  117  A    between atoms: _299  and  _300
REMARK  118  A    between atoms: _303  and  _305
REMARK  119  A    between atoms: _305  and  _306
REMARK  120  A    between atoms: _305  and  _308
REMARK  121  A    between atoms: _308  and  _309
REMARK  122  A    between atoms: _312  and  _314
REMARK  123  A    between atoms: _314  and  _315
REMARK  124  A    between atoms: _314  and  _317
REMARK  125  A    between atoms: _317  and  _318
REMARK  126  A    between atoms: _318  and  _319
REMARK  127  A    between atoms: _322  and  _324
REMARK  128  A    between atoms: _324  and  _325
REMARK  129  A    between atoms: _324  and  _327
REMARK  130  A    between atoms: _327  and  _328
REMARK  131  A    between atoms: _333  and  _335
REMARK  132  A    between atoms: _335  and  _336
REMARK  133  A    between atoms: _338  and  _340
REMARK  134  A    between atoms: _340  and  _341
REMARK  135  A    between atoms: _340  and  _343
REMARK  136  A    between atoms: _346  and  _348
REMARK  137  A    between atoms: _348  and  _349
REMARK  138  A    between atoms: _352  and  _354
REMARK  139  A    between atoms: _354  and  _355
REMARK  140  A    between atoms: _354  and  _357
REMARK  141  A    between atoms: _357  and  _358
REMARK  142  A    between atoms: _363  and  _365
REMARK  143  A    between atoms: _365  and  _366
REMARK  144  A    between atoms: _365  and  _368
REMARK  145  A    between atoms: _368  and  _369
REMARK  146  A    between atoms: _369  and  _370
REMARK  147  A    between atoms: _370  and  _371
REMARK  148  A    between atoms: _371  and  _372
REMARK  149  A    between atoms: _376  and  _378
REMARK  150  A    between atoms: _378  and  _379
REMARK  151  A    between atoms: _378  and  _381
REMARK  152  A    between atoms: _381  and  _382
REMARK  153  A    between atoms: _385  and  _387
REMARK  154  A    between atoms: _387  and  _388
REMARK  155  A    between atoms: _387  and  _390
REMARK  156  A    between atoms: _390  and  _391
REMARK  157  A    between atoms: _396  and  _398
REMARK  158  A    between atoms: _398  and  _399
REMARK  159  A    between atoms: _401  and  _403
REMARK  160  A    between atoms: _403  and  _404
REMARK  161  A    between atoms: _403  and  _406
REMARK  162  A    between atoms: _406  and  _407
REMARK  163  A    between atoms: _407  and  _408
REMARK  164  A    between atoms: _408  and  _409
REMARK  165  A    between atoms: _409  and  _410
REMARK  166  A    between atoms: _414  and  _416
REMARK  167  A    between atoms: _416  and  _417
REMARK  168  A    between atoms: _416  and  _419
REMARK  169  A    between atoms: _419  and  _420
REMARK  170  A    between atoms: _420  and  _421
REMARK  171  A    between atoms: _421  and  _422
REMARK  172  A    between atoms: _431  and  _433
REMARK  173  A    between atoms: _433  and  _434
REMARK  174  A    between atoms: _433  and  _436
REMARK  175  A    between atoms: _436  and  _437
REMARK  176  A    between atoms: _442  and  _444
REMARK  177  A    between atoms: _444  and  _445
REMARK  178  A    between atoms: _444  and  _447
REMARK  179  A    between atoms: _447  and  _448
REMARK  180  A    between atoms: _453  and  _454
REMARK  181  A    between atoms: _456  and  _458
REMARK  182  A    between atoms: _458  and  _459
REMARK  183  A    between atoms: _458  and  _461
REMARK  184  A    between atoms: _461  and  _462
REMARK  185  A    between atoms: _462  and  _463
REMARK  186  A    between atoms: _463  and  _464
REMARK  187  A    between atoms: _464  and  _465
REMARK  188  A    between atoms: _469  and  _471
REMARK  189  A    between atoms: _471  and  _472
REMARK  190  A    between atoms: _471  and  _474
REMARK  191  A    between atoms: _474  and  _475
REMARK  192  A    between atoms: _477  and  _479
REMARK  193  A    between atoms: _479  and  _480
REMARK  194  A    between atoms: _479  and  _482
REMARK  195  A    between atoms: _482  and  _483
REMARK  196  A    between atoms: _486  and  _488
REMARK  197  A    between atoms: _488  and  _489
REMARK  198  A    between atoms: _488  and  _491
REMARK  199  A    between atoms: _491  and  _492
REMARK  200  A    between atoms: _492  and  _493
REMARK  201  A    between atoms: _496  and  _498
REMARK  202  A    between atoms: _498  and  _499
REMARK  203  A    between atoms: _502  and  _504
REMARK  204  A    between atoms: _504  and  _505
REMARK  205  A    between atoms: _504  and  _507
REMARK  206  A    between atoms: _507  and  _508
REMARK  207  A    between atoms: _510  and  _512
REMARK  208  A    between atoms: _512  and  _513
REMARK  209  A    between atoms: _515  and  _517
REMARK  210  A    between atoms: _517  and  _518
REMARK  211  A    between atoms: _517  and  _520
REMARK  212  A    between atoms: _520  and  _521
REMARK  213  A    between atoms: _524  and  _526
REMARK  214  A    between atoms: _526  and  _527
REMARK  215  A    between atoms: _529  and  _531
REMARK  216  A    between atoms: _531  and  _532
REMARK  217  A    between atoms: _531  and  _534
REMARK  218  A    between atoms: _534  and  _535
REMARK  219  A    between atoms: _540  and  _542
REMARK  220  A    between atoms: _542  and  _543
REMARK  221  A    between atoms: _542  and  _545
REMARK  222  A    between atoms: _545  and  _546
REMARK  223  A    between atoms: _546  and  _547
REMARK  224  A    between atoms: _554  and  _555
REMARK  225  A    between atoms: _555  and  _571
REMARK  226  A    between atoms: _556  and  _558
REMARK  227  A    between atoms: _558  and  _559
REMARK  228  A    between atoms: _559  and  _560
REMARK  229  A    between atoms: _564  and  _566
REMARK  230  A    between atoms: _566  and  _567
REMARK  231  A    between atoms: _566  and  _574
REMARK  232  A    between atoms: _567  and  _568
REMARK  233  A    between atoms: _568  and  _569
REMARK  234  A    between atoms: _569  and  _570
REMARK  235  A    between atoms: _570  and  _571
REMARK  236  A    between atoms: _576  and  _578
REMARK  237  A    between atoms: _578  and  _579
REMARK  238  A    between atoms: _578  and  _581
REMARK  239  A    between atoms: _581  and  _582
REMARK  240  A    between atoms: _585  and  _587
REMARK  241  A    between atoms: _587  and  _588
REMARK  242  A    between atoms: _590  and  _592
REMARK  243  A    between atoms: _592  and  _593
REMARK  244  A    between atoms: _596  and  _598
REMARK  245  A    between atoms: _598  and  _599
REMARK  246  A    between atoms: _598  and  _601
REMARK  247  A    between atoms: _601  and  _602
REMARK  248  A    between atoms: _607  and  _608
REMARK                            x       y       z     vdW  Elec       q    Type
REMARK                         _______ _______ _______ _____ _____    ______ ____
ROOT
ATOM      1  O   HOH     1      28.814  27.151  20.540  0.00  0.00    +0.000 OA
ENDROOT
TORSDOF 0
REMARK  Name = ../refined-set-2016/3g2i/3g2i_pocket.pdb
REMARK  248 active torsions:
REMARK  status: ('A' for Active; 'I' for Inactive)
REMARK    1  A    between atoms: _1  and  _3
REMARK    2  A    between atoms: _3  and  _4
REMARK    3  A    between atoms: _3  and  _6
REMARK    4  A    between atoms: _6  and  _7
REMARK    5  A    between atoms: _12  and  _13
REMARK    6  A    between atoms: _15  and  _17
REMARK    7  A    between atoms: _17  and  _18
REMARK    8  A    between atoms: _17  and  _20
REMARK    9  A    between atoms: _20  and  _21
REMARK   10  A    between atoms: _21  and  _22
REMARK   11  A    between atoms: _25  and  _27
REMARK   12  A    between atoms: _27  and  _28
REMARK   13  A    between atoms: _27  and  _30
REMARK   14  A    between atoms: _30  and  _31
REMARK   15  A    between atoms: _36  and  _38
REMARK   16  A    between atoms: _38  and  _39
REMARK   17  A    between atoms: _41  and  _43
REMARK   18  A    between atoms: _43  and  _44
REMARK   19  A    between atoms: _46  and  _48
REMARK   20  A    between atoms: _48  and  _49
REMARK   21  A    between atoms: _48  and  _51
REMARK   22  A    between atoms: _51  and  _52
REMARK   23  A    between atoms: _55  and  _57
REMARK   24  A    between atoms: _57  and  _58
REMARK   25  A    between atoms: _60  and  _62
REMARK   26  A    between atoms: _62  and  _63
REMARK   27  A    between atoms: _62  and  _65
REMARK   28  A    between atoms: _65  and  _66
REMARK   29  A    between atoms: _66  and  _67
REMARK   30  A    between atoms: _67  and  _68
REMARK   31  A    between atoms: _77  and  _79
REMARK   32  A    between atoms: _79  and  _80
REMARK   33  A    between atoms: _79  and  _82
REMARK   34  A    between atoms: _82  and  _83
REMARK   35  A    between atoms: _86  and  _88
REMARK   36  A    between atoms: _88  and  _89
REMARK   37  A    between atoms: _92  and  _94
REMARK   38  A    between atoms: _94  and  _95
REMARK   39  A    between atoms: _94  and  _97
REMARK   40  A    between atoms: _97  and  _98
REMARK   41  A    between atoms: _104  and  _106
REMARK   42  A    between atoms: _106  and  _107
REMARK   43  A    between atoms: _106  and  _109
REMARK   44  A    between atoms: _109  and  _110
REMARK   45  A    between atoms: _115  and  _117
REMARK   46  A    between atoms: _117  and  _118
REMARK   47  A    between atoms: _117  and  _120
REMARK   48  A    between atoms: _120  and  _121
REMARK   49  A    between atoms: _124  and  _126
REMARK   50  A    between atoms: _126  and  _127
REMARK   51  A    between atoms: _126  and  _129
REMARK   52  A    between atoms: _129  and  _130
REMARK   53  A    between atoms: _135  and  _137
REMARK   54  A    between atoms: _137  and  _138
REMARK   55  A    between atoms: _137  and  _140
REMARK   56  A    between atoms: _140  and  _141
REMARK   57  A    between atoms: _147  and  _149
REMARK   58  A    between atoms: _149  and  _150
REMARK   59  A    between atoms: _149  and  _152
REMARK   60  A    between atoms: _152  and  _153
REMARK   61  A    between atoms: _159  and  _161
REMARK   62  A    between atoms: _161  and  _162
REMARK   63  A    between atoms: _161  and  _164
REMARK   64  A    between atoms: _164  and  _165
REMARK   65  A    between atoms: _165  and  _166
REMARK   66  A    between atoms: _166  and  _167
REMARK   67  A    between atoms: _176  and  _178
REMARK   68  A    between atoms: _178  and  _179
REMARK   69  A    between atoms: _178  and  _181
REMARK   70  A    between atoms: _181  and  _182
REMARK   71  A    between atoms: _187  and  _189
REMARK   72  A    between atoms: _189  and  _190
REMARK   73  A    between atoms: _189  and  _192
REMARK   74  A    between atoms: _192  and  _193
REMARK   75  A    between atoms: _196  and  _198
REMARK   76  A    between atoms: _198  and  _199
REMARK   77  A    between atoms: _198  and  _201
REMARK   78  A    between atoms: _201  and  _202
REMARK   79  A    between atoms: _205  and  _207
REMARK   80  A    between atoms: _207  and  _208
REMARK   81  A    between atoms: _207  and  _210
REMARK   82  A    between atoms: _210  and  _211
REMARK   83  A    between atoms: _216  and  _218
REMARK   84  A    between atoms: _218  and  _219
REMARK   85  A    between atoms: _218  and  _221
REMARK   86  A    between atoms: _221  and  _222
REMARK   87  A    between atoms: _227  and  _228
REMARK   88  A    between atoms: _230  and  _232
REMARK   89  A    between atoms: _232  and  _233
REMARK   90  A    between atoms: _232  and  _235
REMARK   91  A    between atoms: _235  and  _236
REMARK   92  A    between atoms: _239  and  _241
REMARK   93  A    between atoms: _241  and  _242
REMARK   94  A    between atoms: _241  and  _244
REMARK   95  A    between atoms: _244  and  _245
REMARK   96  A    between atoms: _250  and  _252
REMARK   97  A    between atoms: _252  and  _253
REMARK   98  A    between atoms: _252  and  _255
REMARK   99  A    between atoms: _255  and  _256
REMARK  100  A    between atoms: _261  and  _263
REMARK  101  A    between atoms: _263  and  _264
REMARK  102  A    between atoms: _263  and  _266
REMARK  103  A    between atoms: _266  and  _267
REMARK  104  A    between atoms: _270  and  _272
REMARK  105  A    between atoms: _272  and  _273
REMARK  106  A    between atoms: _272  and  _275
REMARK  107  A    between atoms: _278  and  _280
REMARK  108  A    between atoms: _280  and  _281
REMARK  109  A    between atoms: _280  and  _283
REMARK  110  A    between atoms: _283  and  _284
REMARK  111  A    between atoms: _287  and  _289
REMARK  112  A    between atoms: _289  and  _290
REMARK  113  A    between atoms: _289  and  _292
REMARK  114  A    between atoms: _292  and  _293
REMARK  115  A    between atoms: _293  and  _294
REMARK  116  A    between atoms: _297  and  _299
REMARK  117  A    between atoms: _299  and  _300
REMARK  118  A    between atoms: _303  and  _305
REMARK  119  A    between atoms: _305  and  _306
REMARK  120  A    between atoms: _305  and  _308
REMARK  121  A    between atoms: _308  and  _309
REMARK  122  A    between atoms: _312  and  _314
REMARK  123  A    between atoms: _314  and  _315
REMARK  124  A    between atoms: _314  and  _317
REMARK  125  A    between atoms: _317  and  _318
REMARK  126  A    between atoms: _318  and  _319
REMARK  127  A    between atoms: _322  and  _324
REMARK  128  A    between atoms: _324  and  _325
REMARK  129  A    between atoms: _324  and  _327
REMARK  130  A    between atoms: _327  and  _328
REMARK  131  A    between atoms: _333  and  _335
REMARK  132  A    between atoms: _335  and  _336
REMARK  133  A    between atoms: _338  and  _340
REMARK  134  A    between atoms: _340  and  _341
REMARK  135  A    between atoms: _340  and  _343
REMARK  136  A    between atoms: _346  and  _348
REMARK  137  A    between atoms: _348  and  _349
REMARK  138  A    between atoms: _352  and  _354
REMARK  139  A    between atoms: _354  and  _355
REMARK  140  A    between atoms: _354  and  _357
REMARK  141  A    between atoms: _357  and  _358
REMARK  142  A    between atoms: _363  and  _365
REMARK  143  A    between atoms: _365  and  _366
REMARK  144  A    between atoms: _365  and  _368
REMARK  145  A    between atoms: _368  and  _369
REMARK  146  A    between atoms: _369  and  _370
REMARK  147  A    between atoms: _370  and  _371
REMARK  148  A    between atoms: _371  and  _372
REMARK  149  A    between atoms: _376  and  _378
REMARK  150  A    between atoms: _378  and  _379
REMARK  151  A    between atoms: _378  and  _381
REMARK  152  A    between atoms: _381  and  _382
REMARK  153  A    between atoms: _385  and  _387
REMARK  154  A    between atoms: _387  and  _388
REMARK  155  A    between atoms: _387  and  _390
REMARK  156  A    between atoms: _390  and  _391
REMARK  157  A    between atoms: _396  and  _398
REMARK  158  A    between atoms: _398  and  _399
REMARK  159  A    between atoms: _401  and  _403
REMARK  160  A    between atoms: _403  and  _404
REMARK  161  A    between atoms: _403  and  _406
REMARK  162  A    between atoms: _406  and  _407
REMARK  163  A    between atoms: _407  and  _408
REMARK  164  A    between atoms: _408  and  _409
REMARK  165  A    between atoms: _409  and  _410
REMARK  166  A    between atoms: _414  and  _416
REMARK  167  A    between atoms: _416  and  _417
REMARK  168  A    between atoms: _416  and  _419
REMARK  169  A    between atoms: _419  and  _420
REMARK  170  A    between atoms: _420  and  _421
REMARK  171  A    between atoms: _421  and  _422
REMARK  172  A    between atoms: _431  and  _433
REMARK  173  A    between atoms: _433  and  _434
REMARK  174  A    between atoms: _433  and  _436
REMARK  175  A    between atoms: _436  and  _437
REMARK  176  A    between atoms: _442  and  _444
REMARK  177  A    between atoms: _444  and  _445
REMARK  178  A    between atoms: _444  and  _447
REMARK  179  A    between atoms: _447  and  _448
REMARK  180  A    between atoms: _453  and  _454
REMARK  181  A    between atoms: _456  and  _458
REMARK  182  A    between atoms: _458  and  _459
REMARK  183  A    between atoms: _458  and  _461
REMARK  184  A    between atoms: _461  and  _462
REMARK  185  A    between atoms: _462  and  _463
REMARK  186  A    between atoms: _463  and  _464
REMARK  187  A    between atoms: _464  and  _465
REMARK  188  A    between atoms: _469  and  _471
REMARK  189  A    between atoms: _471  and  _472
REMARK  190  A    between atoms: _471  and  _474
REMARK  191  A    between atoms: _474  and  _475
REMARK  192  A    between atoms: _477  and  _479
REMARK  193  A    between atoms: _479  and  _480
REMARK  194  A    between atoms: _479  and  _482
REMARK  195  A    between atoms: _482  and  _483
REMARK  196  A    between atoms: _486  and  _488
REMARK  197  A    between atoms: _488  and  _489
REMARK  198  A    between atoms: _488  and  _491
REMARK  199  A    between atoms: _491  and  _492
REMARK  200  A    between atoms: _492  and  _493
REMARK  201  A    between atoms: _496  and  _498
REMARK  202  A    between atoms: _498  and  _499
REMARK  203  A    between atoms: _502  and  _504
REMARK  204  A    between atoms: _504  and  _505
REMARK  205  A    between atoms: _504  and  _507
REMARK  206  A    between atoms: _507  and  _508
REMARK  207  A    between atoms: _510  and  _512
REMARK  208  A    between atoms: _512  and  _513
REMARK  209  A    between atoms: _515  and  _517
REMARK  210  A    between atoms: _517  and  _518
REMARK  211  A    between atoms: _517  and  _520
REMARK  212  A    between atoms: _520  and  _521
REMARK  213  A    between atoms: _524  and  _526
REMARK  214  A    between atoms: _526  and  _527
REMARK  215  A    between atoms: _529  and  _531
REMARK  216  A    between atoms: _531  and  _532
REMARK  217  A    between atoms: _531  and  _534
REMARK  218  A    between atoms: _534  and  _535
REMARK  219  A    between atoms: _540  and  _542
REMARK  220  A    between atoms: _542  and  _543
REMARK  221  A    between atoms: _542  and  _545
REMARK  222  A    between atoms: _545  and  _546
REMARK  223  A    between atoms: _546  and  _547
REMARK  224  A    between atoms: _554  and  _555
REMARK  225  A    between atoms: _555  and  _571
REMARK  226  A    between atoms: _556  and  _558
REMARK  227  A    between atoms: _558  and  _559
REMARK  228  A    between atoms: _559  and  _560
REMARK  229  A    between atoms: _564  and  _566
REMARK  230  A    between atoms: _566  and  _567
REMARK  231  A    between atoms: _566  and  _574
REMARK  232  A    between atoms: _567  and  _568
REMARK  233  A    between atoms: _568  and  _569
REMARK  234  A    between atoms: _569  and  _570
REMARK  235  A    between atoms: _570  and  _571
REMARK  236  A    between atoms: _576  and  _578
REMARK  237  A    between atoms: _578  and  _579
REMARK  238  A    between atoms: _578  and  _581
REMARK  239  A    between atoms: _581  and  _582
REMARK  240  A    between atoms: _585  and  _587
REMARK  241  A    between atoms: _587  and  _588
REMARK  242  A    between atoms: _590  and  _592
REMARK  243  A    between atoms: _592  and  _593
REMARK  244  A    between atoms: _596  and  _598
REMARK  245  A    between atoms: _598  and  _599
REMARK  246  A    between atoms: _598  and  _601
REMARK  247  A    between atoms: _601  and  _602
REMARK  248  A    between atoms: _607  and  _608
REMARK                            x       y       z     vdW  Elec       q    Type
REMARK                         _______ _______ _______ _____ _____    ______ ____
ROOT
ATOM      1  O   HOH     1      25.894  16.534  28.459  0.00  0.00    +0.000 OA
ENDROOT
TORSDOF 0
REMARK  Name = ../refined-set-2016/3g2i/3g2i_pocket.pdb
REMARK  248 active torsions:
REMARK  status: ('A' for Active; 'I' for Inactive)
REMARK    1  A    between atoms: _1  and  _3
REMARK    2  A    between atoms: _3  and  _4
REMARK    3  A    between atoms: _3  and  _6
REMARK    4  A    between atoms: _6  and  _7
REMARK    5  A    between atoms: _12  and  _13
REMARK    6  A    between atoms: _15  and  _17
REMARK    7  A    between atoms: _17  and  _18
REMARK    8  A    between atoms: _17  and  _20
REMARK    9  A    between atoms: _20  and  _21
REMARK   10  A    between atoms: _21  and  _22
REMARK   11  A    between atoms: _25  and  _27
REMARK   12  A    between atoms: _27  and  _28
REMARK   13  A    between atoms: _27  and  _30
REMARK   14  A    between atoms: _30  and  _31
REMARK   15  A    between atoms: _36  and  _38
REMARK   16  A    between atoms: _38  and  _39
REMARK   17  A    between atoms: _41  and  _43
REMARK   18  A    between atoms: _43  and  _44
REMARK   19  A    between atoms: _46  and  _48
REMARK   20  A    between atoms: _48  and  _49
REMARK   21  A    between atoms: _48  and  _51
REMARK   22  A    between atoms: _51  and  _52
REMARK   23  A    between atoms: _55  and  _57
REMARK   24  A    between atoms: _57  and  _58
REMARK   25  A    between atoms: _60  and  _62
REMARK   26  A    between atoms: _62  and  _63
REMARK   27  A    between atoms: _62  and  _65
REMARK   28  A    between atoms: _65  and  _66
REMARK   29  A    between atoms: _66  and  _67
REMARK   30  A    between atoms: _67  and  _68
REMARK   31  A    between atoms: _77  and  _79
REMARK   32  A    between atoms: _79  and  _80
REMARK   33  A    between atoms: _79  and  _82
REMARK   34  A    between atoms: _82  and  _83
REMARK   35  A    between atoms: _86  and  _88
REMARK   36  A    between atoms: _88  and  _89
REMARK   37  A    between atoms: _92  and  _94
REMARK   38  A    between atoms: _94  and  _95
REMARK   39  A    between atoms: _94  and  _97
REMARK   40  A    between atoms: _97  and  _98
REMARK   41  A    between atoms: _104  and  _106
REMARK   42  A    between atoms: _106  and  _107
REMARK   43  A    between atoms: _106  and  _109
REMARK   44  A    between atoms: _109  and  _110
REMARK   45  A    between atoms: _115  and  _117
REMARK   46  A    between atoms: _117  and  _118
REMARK   47  A    between atoms: _117  and  _120
REMARK   48  A    between atoms: _120  and  _121
REMARK   49  A    between atoms: _124  and  _126
REMARK   50  A    between atoms: _126  and  _127
REMARK   51  A    between atoms: _126  and  _129
REMARK   52  A    between atoms: _129  and  _130
REMARK   53  A    between atoms: _135  and  _137
REMARK   54  A    between atoms: _137  and  _138
REMARK   55  A    between atoms: _137  and  _140
REMARK   56  A    between atoms: _140  and  _141
REMARK   57  A    between atoms: _147  and  _149
REMARK   58  A    between atoms: _149  and  _150
REMARK   59  A    between atoms: _149  and  _152
REMARK   60  A    between atoms: _152  and  _153
REMARK   61  A    between atoms: _159  and  _161
REMARK   62  A    between atoms: _161  and  _162
REMARK   63  A    between atoms: _161  and  _164
REMARK   64  A    between atoms: _164  and  _165
REMARK   65  A    between atoms: _165  and  _166
REMARK   66  A    between atoms: _166  and  _167
REMARK   67  A    between atoms: _176  and  _178
REMARK   68  A    between atoms: _178  and  _179
REMARK   69  A    between atoms: _178  and  _181
REMARK   70  A    between atoms: _181  and  _182
REMARK   71  A    between atoms: _187  and  _189
REMARK   72  A    between atoms: _189  and  _190
REMARK   73  A    between atoms: _189  and  _192
REMARK   74  A    between atoms: _192  and  _193
REMARK   75  A    between atoms: _196  and  _198
REMARK   76  A    between atoms: _198  and  _199
REMARK   77  A    between atoms: _198  and  _201
REMARK   78  A    between atoms: _201  and  _202
REMARK   79  A    between atoms: _205  and  _207
REMARK   80  A    between atoms: _207  and  _208
REMARK   81  A    between atoms: _207  and  _210
REMARK   82  A    between atoms: _210  and  _211
REMARK   83  A    between atoms: _216  and  _218
REMARK   84  A    between atoms: _218  and  _219
REMARK   85  A    between atoms: _218  and  _221
REMARK   86  A    between atoms: _221  and  _222
REMARK   87  A    between atoms: _227  and  _228
REMARK   88  A    between atoms: _230  and  _232
REMARK   89  A    between atoms: _232  and  _233
REMARK   90  A    between atoms: _232  and  _235
REMARK   91  A    between atoms: _235  and  _236
REMARK   92  A    between atoms: _239  and  _241
REMARK   93  A    between atoms: _241  and  _242
REMARK   94  A    between atoms: _241  and  _244
REMARK   95  A    between atoms: _244  and  _245
REMARK   96  A    between atoms: _250  and  _252
REMARK   97  A    between atoms: _252  and  _253
REMARK   98  A    between atoms: _252  and  _255
REMARK   99  A    between atoms: _255  and  _256
REMARK  100  A    between atoms: _261  and  _263
REMARK  101  A    between atoms: _263  and  _264
REMARK  102  A    between atoms: _263  and  _266
REMARK  103  A    between atoms: _266  and  _267
REMARK  104  A    between atoms: _270  and  _272
REMARK  105  A    between atoms: _272  and  _273
REMARK  106  A    between atoms: _272  and  _275
REMARK  107  A    between atoms: _278  and  _280
REMARK  108  A    between atoms: _280  and  _281
REMARK  109  A    between atoms: _280  and  _283
REMARK  110  A    between atoms: _283  and  _284
REMARK  111  A    between atoms: _287  and  _289
REMARK  112  A    between atoms: _289  and  _290
REMARK  113  A    between atoms: _289  and  _292
REMARK  114  A    between atoms: _292  and  _293
REMARK  115  A    between atoms: _293  and  _294
REMARK  116  A    between atoms: _297  and  _299
REMARK  117  A    between atoms: _299  and  _300
REMARK  118  A    between atoms: _303  and  _305
REMARK  119  A    between atoms: _305  and  _306
REMARK  120  A    between atoms: _305  and  _308
REMARK  121  A    between atoms: _308  and  _309
REMARK  122  A    between atoms: _312  and  _314
REMARK  123  A    between atoms: _314  and  _315
REMARK  124  A    between atoms: _314  and  _317
REMARK  125  A    between atoms: _317  and  _318
REMARK  126  A    between atoms: _318  and  _319
REMARK  127  A    between atoms: _322  and  _324
REMARK  128  A    between atoms: _324  and  _325
REMARK  129  A    between atoms: _324  and  _327
REMARK  130  A    between atoms: _327  and  _328
REMARK  131  A    between atoms: _333  and  _335
REMARK  132  A    between atoms: _335  and  _336
REMARK  133  A    between atoms: _338  and  _340
REMARK  134  A    between atoms: _340  and  _341
REMARK  135  A    between atoms: _340  and  _343
REMARK  136  A    between atoms: _346  and  _348
REMARK  137  A    between atoms: _348  and  _349
REMARK  138  A    between atoms: _352  and  _354
REMARK  139  A    between atoms: _354  and  _355
REMARK  140  A    between atoms: _354  and  _357
REMARK  141  A    between atoms: _357  and  _358
REMARK  142  A    between atoms: _363  and  _365
REMARK  143  A    between atoms: _365  and  _366
REMARK  144  A    between atoms: _365  and  _368
REMARK  145  A    between atoms: _368  and  _369
REMARK  146  A    between atoms: _369  and  _370
REMARK  147  A    between atoms: _370  and  _371
REMARK  148  A    between atoms: _371  and  _372
REMARK  149  A    between atoms: _376  and  _378
REMARK  150  A    between atoms: _378  and  _379
REMARK  151  A    between atoms: _378  and  _381
REMARK  152  A    between atoms: _381  and  _382
REMARK  153  A    between atoms: _385  and  _387
REMARK  154  A    between atoms: _387  and  _388
REMARK  155  A    between atoms: _387  and  _390
REMARK  156  A    between atoms: _390  and  _391
REMARK  157  A    between atoms: _396  and  _398
REMARK  158  A    between atoms: _398  and  _399
REMARK  159  A    between atoms: _401  and  _403
REMARK  160  A    between atoms: _403  and  _404
REMARK  161  A    between atoms: _403  and  _406
REMARK  162  A    between atoms: _406  and  _407
REMARK  163  A    between atoms: _407  and  _408
REMARK  164  A    between atoms: _408  and  _409
REMARK  165  A    between atoms: _409  and  _410
REMARK  166  A    between atoms: _414  and  _416
REMARK  167  A    between atoms: _416  and  _417
REMARK  168  A    between atoms: _416  and  _419
REMARK  169  A    between atoms: _419  and  _420
REMARK  170  A    between atoms: _420  and  _421
REMARK  171  A    between atoms: _421  and  _422
REMARK  172  A    between atoms: _431  and  _433
REMARK  173  A    between atoms: _433  and  _434
REMARK  174  A    between atoms: _433  and  _436
REMARK  175  A    between atoms: _436  and  _437
REMARK  176  A    between atoms: _442  and  _444
REMARK  177  A    between atoms: _444  and  _445
REMARK  178  A    between atoms: _444  and  _447
REMARK  179  A    between atoms: _447  and  _448
REMARK  180  A    between atoms: _453  and  _454
REMARK  181  A    between atoms: _456  and  _458
REMARK  182  A    between atoms: _458  and  _459
REMARK  183  A    between atoms: _458  and  _461
REMARK  184  A    between atoms: _461  and  _462
REMARK  185  A    between atoms: _462  and  _463
REMARK  186  A    between atoms: _463  and  _464
REMARK  187  A    between atoms: _464  and  _465
REMARK  188  A    between atoms: _469  and  _471
REMARK  189  A    between atoms: _471  and  _472
REMARK  190  A    between atoms: _471  and  _474
REMARK  191  A    between atoms: _474  and  _475
REMARK  192  A    between atoms: _477  and  _479
REMARK  193  A    between atoms: _479  and  _480
REMARK  194  A    between atoms: _479  and  _482
REMARK  195  A    between atoms: _482  and  _483
REMARK  196  A    between atoms: _486  and  _488
REMARK  197  A    between atoms: _488  and  _489
REMARK  198  A    between atoms: _488  and  _491
REMARK  199  A    between atoms: _491  and  _492
REMARK  200  A    between atoms: _492  and  _493
REMARK  201  A    between atoms: _496  and  _498
REMARK  202  A    between atoms: _498  and  _499
REMARK  203  A    between atoms: _502  and  _504
REMARK  204  A    between atoms: _504  and  _505
REMARK  205  A    between atoms: _504  and  _507
REMARK  206  A    between atoms: _507  and  _508
REMARK  207  A    between atoms: _510  and  _512
REMARK  208  A    between atoms: _512  and  _513
REMARK  209  A    between atoms: _515  and  _517
REMARK  210  A    between atoms: _517  and  _518
REMARK  211  A    between atoms: _517  and  _520
REMARK  212  A    between atoms: _520  and  _521
REMARK  213  A    between atoms: _524  and  _526
REMARK  214  A    between atoms: _526  and  _527
REMARK  215  A    between atoms: _529  and  _531
REMARK  216  A    between atoms: _531  and  _532
REMARK  217  A    between atoms: _531  and  _534
REMARK  218  A    between atoms: _534  and  _535
REMARK  219  A    between atoms: _540  and  _542
REMARK  220  A    between atoms: _542  and  _543
REMARK  221  A    between atoms: _542  and  _545
REMARK  222  A    between atoms: _545  and  _546
REMARK  223  A    between atoms: _546  and  _547
REMARK  224  A    between atoms: _554  and  _555
REMARK  225  A    between atoms: _555  and  _571
REMARK  226  A    between atoms: _556  and  _558
REMARK  227  A    between atoms: _558  and  _559
REMARK  228  A    between atoms: _559  and  _560
REMARK  229  A    between atoms: _564  and  _566
REMARK  230  A    between atoms: _566  and  _567
REMARK  231  A    between atoms: _566  and  _574
REMARK  232  A    between atoms: _567  and  _568
REMARK  233  A    between atoms: _568  and  _569
REMARK  234  A    between atoms: _569  and  _570
REMARK  235  A    between atoms: _570  and  _571
REMARK  236  A    between atoms: _576  and  _578
REMARK  237  A    between atoms: _578  and  _579
REMARK  238  A    between atoms: _578  and  _581
REMARK  239  A    between atoms: _581  and  _582
REMARK  240  A    between atoms: _585  and  _587
REMARK  241  A    between atoms: _587  and  _588
REMARK  242  A    between atoms: _590  and  _592
REMARK  243  A    between atoms: _592  and  _593
REMARK  244  A    between atoms: _596  and  _598
REMARK  245  A    between atoms: _598  and  _599
REMARK  246  A    between atoms: _598  and  _601
REMARK  247  A    between atoms: _601  and  _602
REMARK  248  A    between atoms: _607  and  _608
REMARK                            x       y       z     vdW  Elec       q    Type
REMARK                         _______ _______ _______ _____ _____    ______ ____
ROOT
ATOM      1  O   HOH     1      43.779  22.691  31.662  0.00  0.00    +0.000 OA
ENDROOT
TORSDOF 0
REMARK  Name = ../refined-set-2016/3g2i/3g2i_pocket.pdb
REMARK  248 active torsions:
REMARK  status: ('A' for Active; 'I' for Inactive)
REMARK    1  A    between atoms: _1  and  _3
REMARK    2  A    between atoms: _3  and  _4
REMARK    3  A    between atoms: _3  and  _6
REMARK    4  A    between atoms: _6  and  _7
REMARK    5  A    between atoms: _12  and  _13
REMARK    6  A    between atoms: _15  and  _17
REMARK    7  A    between atoms: _17  and  _18
REMARK    8  A    between atoms: _17  and  _20
REMARK    9  A    between atoms: _20  and  _21
REMARK   10  A    between atoms: _21  and  _22
REMARK   11  A    between atoms: _25  and  _27
REMARK   12  A    between atoms: _27  and  _28
REMARK   13  A    between atoms: _27  and  _30
REMARK   14  A    between atoms: _30  and  _31
REMARK   15  A    between atoms: _36  and  _38
REMARK   16  A    between atoms: _38  and  _39
REMARK   17  A    between atoms: _41  and  _43
REMARK   18  A    between atoms: _43  and  _44
REMARK   19  A    between atoms: _46  and  _48
REMARK   20  A    between atoms: _48  and  _49
REMARK   21  A    between atoms: _48  and  _51
REMARK   22  A    between atoms: _51  and  _52
REMARK   23  A    between atoms: _55  and  _57
REMARK   24  A    between atoms: _57  and  _58
REMARK   25  A    between atoms: _60  and  _62
REMARK   26  A    between atoms: _62  and  _63
REMARK   27  A    between atoms: _62  and  _65
REMARK   28  A    between atoms: _65  and  _66
REMARK   29  A    between atoms: _66  and  _67
REMARK   30  A    between atoms: _67  and  _68
REMARK   31  A    between atoms: _77  and  _79
REMARK   32  A    between atoms: _79  and  _80
REMARK   33  A    between atoms: _79  and  _82
REMARK   34  A    between atoms: _82  and  _83
REMARK   35  A    between atoms: _86  and  _88
REMARK   36  A    between atoms: _88  and  _89
REMARK   37  A    between atoms: _92  and  _94
REMARK   38  A    between atoms: _94  and  _95
REMARK   39  A    between atoms: _94  and  _97
REMARK   40  A    between atoms: _97  and  _98
REMARK   41  A    between atoms: _104  and  _106
REMARK   42  A    between atoms: _106  and  _107
REMARK   43  A    between atoms: _106  and  _109
REMARK   44  A    between atoms: _109  and  _110
REMARK   45  A    between atoms: _115  and  _117
REMARK   46  A    between atoms: _117  and  _118
REMARK   47  A    between atoms: _117  and  _120
REMARK   48  A    between atoms: _120  and  _121
REMARK   49  A    between atoms: _124  and  _126
REMARK   50  A    between atoms: _126  and  _127
REMARK   51  A    between atoms: _126  and  _129
REMARK   52  A    between atoms: _129  and  _130
REMARK   53  A    between atoms: _135  and  _137
REMARK   54  A    between atoms: _137  and  _138
REMARK   55  A    between atoms: _137  and  _140
REMARK   56  A    between atoms: _140  and  _141
REMARK   57  A    between atoms: _147  and  _149
REMARK   58  A    between atoms: _149  and  _150
REMARK   59  A    between atoms: _149  and  _152
REMARK   60  A    between atoms: _152  and  _153
REMARK   61  A    between atoms: _159  and  _161
REMARK   62  A    between atoms: _161  and  _162
REMARK   63  A    between atoms: _161  and  _164
REMARK   64  A    between atoms: _164  and  _165
REMARK   65  A    between atoms: _165  and  _166
REMARK   66  A    between atoms: _166  and  _167
REMARK   67  A    between atoms: _176  and  _178
REMARK   68  A    between atoms: _178  and  _179
REMARK   69  A    between atoms: _178  and  _181
REMARK   70  A    between atoms: _181  and  _182
REMARK   71  A    between atoms: _187  and  _189
REMARK   72  A    between atoms: _189  and  _190
REMARK   73  A    between atoms: _189  and  _192
REMARK   74  A    between atoms: _192  and  _193
REMARK   75  A    between atoms: _196  and  _198
REMARK   76  A    between atoms: _198  and  _199
REMARK   77  A    between atoms: _198  and  _201
REMARK   78  A    between atoms: _201  and  _202
REMARK   79  A    between atoms: _205  and  _207
REMARK   80  A    between atoms: _207  and  _208
REMARK   81  A    between atoms: _207  and  _210
REMARK   82  A    between atoms: _210  and  _211
REMARK   83  A    between atoms: _216  and  _218
REMARK   84  A    between atoms: _218  and  _219
REMARK   85  A    between atoms: _218  and  _221
REMARK   86  A    between atoms: _221  and  _222
REMARK   87  A    between atoms: _227  and  _228
REMARK   88  A    between atoms: _230  and  _232
REMARK   89  A    between atoms: _232  and  _233
REMARK   90  A    between atoms: _232  and  _235
REMARK   91  A    between atoms: _235  and  _236
REMARK   92  A    between atoms: _239  and  _241
REMARK   93  A    between atoms: _241  and  _242
REMARK   94  A    between atoms: _241  and  _244
REMARK   95  A    between atoms: _244  and  _245
REMARK   96  A    between atoms: _250  and  _252
REMARK   97  A    between atoms: _252  and  _253
REMARK   98  A    between atoms: _252  and  _255
REMARK   99  A    between atoms: _255  and  _256
REMARK  100  A    between atoms: _261  and  _263
REMARK  101  A    between atoms: _263  and  _264
REMARK  102  A    between atoms: _263  and  _266
REMARK  103  A    between atoms: _266  and  _267
REMARK  104  A    between atoms: _270  and  _272
REMARK  105  A    between atoms: _272  and  _273
REMARK  106  A    between atoms: _272  and  _275
REMARK  107  A    between atoms: _278  and  _280
REMARK  108  A    between atoms: _280  and  _281
REMARK  109  A    between atoms: _280  and  _283
REMARK  110  A    between atoms: _283  and  _284
REMARK  111  A    between atoms: _287  and  _289
REMARK  112  A    between atoms: _289  and  _290
REMARK  113  A    between atoms: _289  and  _292
REMARK  114  A    between atoms: _292  and  _293
REMARK  115  A    between atoms: _293  and  _294
REMARK  116  A    between atoms: _297  and  _299
REMARK  117  A    between atoms: _299  and  _300
REMARK  118  A    between atoms: _303  and  _305
REMARK  119  A    between atoms: _305  and  _306
REMARK  120  A    between atoms: _305  and  _308
REMARK  121  A    between atoms: _308  and  _309
REMARK  122  A    between atoms: _312  and  _314
REMARK  123  A    between atoms: _314  and  _315
REMARK  124  A    between atoms: _314  and  _317
REMARK  125  A    between atoms: _317  and  _318
REMARK  126  A    between atoms: _318  and  _319
REMARK  127  A    between atoms: _322  and  _324
REMARK  128  A    between atoms: _324  and  _325
REMARK  129  A    between atoms: _324  and  _327
REMARK  130  A    between atoms: _327  and  _328
REMARK  131  A    between atoms: _333  and  _335
REMARK  132  A    between atoms: _335  and  _336
REMARK  133  A    between atoms: _338  and  _340
REMARK  134  A    between atoms: _340  and  _341
REMARK  135  A    between atoms: _340  and  _343
REMARK  136  A    between atoms: _346  and  _348
REMARK  137  A    between atoms: _348  and  _349
REMARK  138  A    between atoms: _352  and  _354
REMARK  139  A    between atoms: _354  and  _355
REMARK  140  A    between atoms: _354  and  _357
REMARK  141  A    between atoms: _357  and  _358
REMARK  142  A    between atoms: _363  and  _365
REMARK  143  A    between atoms: _365  and  _366
REMARK  144  A    between atoms: _365  and  _368
REMARK  145  A    between atoms: _368  and  _369
REMARK  146  A    between atoms: _369  and  _370
REMARK  147  A    between atoms: _370  and  _371
REMARK  148  A    between atoms: _371  and  _372
REMARK  149  A    between atoms: _376  and  _378
REMARK  150  A    between atoms: _378  and  _379
REMARK  151  A    between atoms: _378  and  _381
REMARK  152  A    between atoms: _381  and  _382
REMARK  153  A    between atoms: _385  and  _387
REMARK  154  A    between atoms: _387  and  _388
REMARK  155  A    between atoms: _387  and  _390
REMARK  156  A    between atoms: _390  and  _391
REMARK  157  A    between atoms: _396  and  _398
REMARK  158  A    between atoms: _398  and  _399
REMARK  159  A    between atoms: _401  and  _403
REMARK  160  A    between atoms: _403  and  _404
REMARK  161  A    between atoms: _403  and  _406
REMARK  162  A    between atoms: _406  and  _407
REMARK  163  A    between atoms: _407  and  _408
REMARK  164  A    between atoms: _408  and  _409
REMARK  165  A    between atoms: _409  and  _410
REMARK  166  A    between atoms: _414  and  _416
REMARK  167  A    between atoms: _416  and  _417
REMARK  168  A    between atoms: _416  and  _419
REMARK  169  A    between atoms: _419  and  _420
REMARK  170  A    between atoms: _420  and  _421
REMARK  171  A    between atoms: _421  and  _422
REMARK  172  A    between atoms: _431  and  _433
REMARK  173  A    between atoms: _433  and  _434
REMARK  174  A    between atoms: _433  and  _436
REMARK  175  A    between atoms: _436  and  _437
REMARK  176  A    between atoms: _442  and  _444
REMARK  177  A    between atoms: _444  and  _445
REMARK  178  A    between atoms: _444  and  _447
REMARK  179  A    between atoms: _447  and  _448
REMARK  180  A    between atoms: _453  and  _454
REMARK  181  A    between atoms: _456  and  _458
REMARK  182  A    between atoms: _458  and  _459
REMARK  183  A    between atoms: _458  and  _461
REMARK  184  A    between atoms: _461  and  _462
REMARK  185  A    between atoms: _462  and  _463
REMARK  186  A    between atoms: _463  and  _464
REMARK  187  A    between atoms: _464  and  _465
REMARK  188  A    between atoms: _469  and  _471
REMARK  189  A    between atoms: _471  and  _472
REMARK  190  A    between atoms: _471  and  _474
REMARK  191  A    between atoms: _474  and  _475
REMARK  192  A    between atoms: _477  and  _479
REMARK  193  A    between atoms: _479  and  _480
REMARK  194  A    between atoms: _479  and  _482
REMARK  195  A    between atoms: _482  and  _483
REMARK  196  A    between atoms: _486  and  _488
REMARK  197  A    between atoms: _488  and  _489
REMARK  198  A    between atoms: _488  and  _491
REMARK  199  A    between atoms: _491  and  _492
REMARK  200  A    between atoms: _492  and  _493
REMARK  201  A    between atoms: _496  and  _498
REMARK  202  A    between atoms: _498  and  _499
REMARK  203  A    between atoms: _502  and  _504
REMARK  204  A    between atoms: _504  and  _505
REMARK  205  A    between atoms: _504  and  _507
REMARK  206  A    between atoms: _507  and  _508
REMARK  207  A    between atoms: _510  and  _512
REMARK  208  A    between atoms: _512  and  _513
REMARK  209  A    between atoms: _515  and  _517
REMARK  210  A    between atoms: _517  and  _518
REMARK  211  A    between atoms: _517  and  _520
REMARK  212  A    between atoms: _520  and  _521
REMARK  213  A    between atoms: _524  and  _526
REMARK  214  A    between atoms: _526  and  _527
REMARK  215  A    between atoms: _529  and  _531
REMARK  216  A    between atoms: _531  and  _532
REMARK  217  A    between atoms: _531  and  _534
REMARK  218  A    between atoms: _534  and  _535
REMARK  219  A    between atoms: _540  and  _542
REMARK  220  A    between atoms: _542  and  _543
REMARK  221  A    between atoms: _542  and  _545
REMARK  222  A    between atoms: _545  and  _546
REMARK  223  A    between atoms: _546  and  _547
REMARK  224  A    between atoms: _554  and  _555
REMARK  225  A    between atoms: _555  and  _571
REMARK  226  A    between atoms: _556  and  _558
REMARK  227  A    between atoms: _558  and  _559
REMARK  228  A    between atoms: _559  and  _560
REMARK  229  A    between atoms: _564  and  _566
REMARK  230  A    between atoms: _566  and  _567
REMARK  231  A    between atoms: _566  and  _574
REMARK  232  A    between atoms: _567  and  _568
REMARK  233  A    between atoms: _568  and  _569
REMARK  234  A    between atoms: _569  and  _570
REMARK  235  A    between atoms: _570  and  _571
REMARK  236  A    between atoms: _576  and  _578
REMARK  237  A    between atoms: _578  and  _579
REMARK  238  A    between atoms: _578  and  _581
REMARK  239  A    between atoms: _581  and  _582
REMARK  240  A    between atoms: _585  and  _587
REMARK  241  A    between atoms: _587  and  _588
REMARK  242  A    between atoms: _590  and  _592
REMARK  243  A    between atoms: _592  and  _593
REMARK  244  A    between atoms: _596  and  _598
REMARK  245  A    between atoms: _598  and  _599
REMARK  246  A    between atoms: _598  and  _601
REMARK  247  A    between atoms: _601  and  _602
REMARK  248  A    between atoms: _607  and  _608
REMARK                            x       y       z     vdW  Elec       q    Type
REMARK                         _______ _______ _______ _____ _____    ______ ____
ROOT
ATOM      1  O   HOH     1      29.589  25.676  28.698  0.00  0.00    +0.000 OA
ENDROOT
TORSDOF 0
REMARK  Name = ../refined-set-2016/3g2i/3g2i_pocket.pdb
REMARK  248 active torsions:
REMARK  status: ('A' for Active; 'I' for Inactive)
REMARK    1  A    between atoms: _1  and  _3
REMARK    2  A    between atoms: _3  and  _4
REMARK    3  A    between atoms: _3  and  _6
REMARK    4  A    between atoms: _6  and  _7
REMARK    5  A    between atoms: _12  and  _13
REMARK    6  A    between atoms: _15  and  _17
REMARK    7  A    between atoms: _17  and  _18
REMARK    8  A    between atoms: _17  and  _20
REMARK    9  A    between atoms: _20  and  _21
REMARK   10  A    between atoms: _21  and  _22
REMARK   11  A    between atoms: _25  and  _27
REMARK   12  A    between atoms: _27  and  _28
REMARK   13  A    between atoms: _27  and  _30
REMARK   14  A    between atoms: _30  and  _31
REMARK   15  A    between atoms: _36  and  _38
REMARK   16  A    between atoms: _38  and  _39
REMARK   17  A    between atoms: _41  and  _43
REMARK   18  A    between atoms: _43  and  _44
REMARK   19  A    between atoms: _46  and  _48
REMARK   20  A    between atoms: _48  and  _49
REMARK   21  A    between atoms: _48  and  _51
REMARK   22  A    between atoms: _51  and  _52
REMARK   23  A    between atoms: _55  and  _57
REMARK   24  A    between atoms: _57  and  _58
REMARK   25  A    between atoms: _60  and  _62
REMARK   26  A    between atoms: _62  and  _63
REMARK   27  A    between atoms: _62  and  _65
REMARK   28  A    between atoms: _65  and  _66
REMARK   29  A    between atoms: _66  and  _67
REMARK   30  A    between atoms: _67  and  _68
REMARK   31  A    between atoms: _77  and  _79
REMARK   32  A    between atoms: _79  and  _80
REMARK   33  A    between atoms: _79  and  _82
REMARK   34  A    between atoms: _82  and  _83
REMARK   35  A    between atoms: _86  and  _88
REMARK   36  A    between atoms: _88  and  _89
REMARK   37  A    between atoms: _92  and  _94
REMARK   38  A    between atoms: _94  and  _95
REMARK   39  A    between atoms: _94  and  _97
REMARK   40  A    between atoms: _97  and  _98
REMARK   41  A    between atoms: _104  and  _106
REMARK   42  A    between atoms: _106  and  _107
REMARK   43  A    between atoms: _106  and  _109
REMARK   44  A    between atoms: _109  and  _110
REMARK   45  A    between atoms: _115  and  _117
REMARK   46  A    between atoms: _117  and  _118
REMARK   47  A    between atoms: _117  and  _120
REMARK   48  A    between atoms: _120  and  _121
REMARK   49  A    between atoms: _124  and  _126
REMARK   50  A    between atoms: _126  and  _127
REMARK   51  A    between atoms: _126  and  _129
REMARK   52  A    between atoms: _129  and  _130
REMARK   53  A    between atoms: _135  and  _137
REMARK   54  A    between atoms: _137  and  _138
REMARK   55  A    between atoms: _137  and  _140
REMARK   56  A    between atoms: _140  and  _141
REMARK   57  A    between atoms: _147  and  _149
REMARK   58  A    between atoms: _149  and  _150
REMARK   59  A    between atoms: _149  and  _152
REMARK   60  A    between atoms: _152  and  _153
REMARK   61  A    between atoms: _159  and  _161
REMARK   62  A    between atoms: _161  and  _162
REMARK   63  A    between atoms: _161  and  _164
REMARK   64  A    between atoms: _164  and  _165
REMARK   65  A    between atoms: _165  and  _166
REMARK   66  A    between atoms: _166  and  _167
REMARK   67  A    between atoms: _176  and  _178
REMARK   68  A    between atoms: _178  and  _179
REMARK   69  A    between atoms: _178  and  _181
REMARK   70  A    between atoms: _181  and  _182
REMARK   71  A    between atoms: _187  and  _189
REMARK   72  A    between atoms: _189  and  _190
REMARK   73  A    between atoms: _189  and  _192
REMARK   74  A    between atoms: _192  and  _193
REMARK   75  A    between atoms: _196  and  _198
REMARK   76  A    between atoms: _198  and  _199
REMARK   77  A    between atoms: _198  and  _201
REMARK   78  A    between atoms: _201  and  _202
REMARK   79  A    between atoms: _205  and  _207
REMARK   80  A    between atoms: _207  and  _208
REMARK   81  A    between atoms: _207  and  _210
REMARK   82  A    between atoms: _210  and  _211
REMARK   83  A    between atoms: _216  and  _218
REMARK   84  A    between atoms: _218  and  _219
REMARK   85  A    between atoms: _218  and  _221
REMARK   86  A    between atoms: _221  and  _222
REMARK   87  A    between atoms: _227  and  _228
REMARK   88  A    between atoms: _230  and  _232
REMARK   89  A    between atoms: _232  and  _233
REMARK   90  A    between atoms: _232  and  _235
REMARK   91  A    between atoms: _235  and  _236
REMARK   92  A    between atoms: _239  and  _241
REMARK   93  A    between atoms: _241  and  _242
REMARK   94  A    between atoms: _241  and  _244
REMARK   95  A    between atoms: _244  and  _245
REMARK   96  A    between atoms: _250  and  _252
REMARK   97  A    between atoms: _252  and  _253
REMARK   98  A    between atoms: _252  and  _255
REMARK   99  A    between atoms: _255  and  _256
REMARK  100  A    between atoms: _261  and  _263
REMARK  101  A    between atoms: _263  and  _264
REMARK  102  A    between atoms: _263  and  _266
REMARK  103  A    between atoms: _266  and  _267
REMARK  104  A    between atoms: _270  and  _272
REMARK  105  A    between atoms: _272  and  _273
REMARK  106  A    between atoms: _272  and  _275
REMARK  107  A    between atoms: _278  and  _280
REMARK  108  A    between atoms: _280  and  _281
REMARK  109  A    between atoms: _280  and  _283
REMARK  110  A    between atoms: _283  and  _284
REMARK  111  A    between atoms: _287  and  _289
REMARK  112  A    between atoms: _289  and  _290
REMARK  113  A    between atoms: _289  and  _292
REMARK  114  A    between atoms: _292  and  _293
REMARK  115  A    between atoms: _293  and  _294
REMARK  116  A    between atoms: _297  and  _299
REMARK  117  A    between atoms: _299  and  _300
REMARK  118  A    between atoms: _303  and  _305
REMARK  119  A    between atoms: _305  and  _306
REMARK  120  A    between atoms: _305  and  _308
REMARK  121  A    between atoms: _308  and  _309
REMARK  122  A    between atoms: _312  and  _314
REMARK  123  A    between atoms: _314  and  _315
REMARK  124  A    between atoms: _314  and  _317
REMARK  125  A    between atoms: _317  and  _318
REMARK  126  A    between atoms: _318  and  _319
REMARK  127  A    between atoms: _322  and  _324
REMARK  128  A    between atoms: _324  and  _325
REMARK  129  A    between atoms: _324  and  _327
REMARK  130  A    between atoms: _327  and  _328
REMARK  131  A    between atoms: _333  and  _335
REMARK  132  A    between atoms: _335  and  _336
REMARK  133  A    between atoms: _338  and  _340
REMARK  134  A    between atoms: _340  and  _341
REMARK  135  A    between atoms: _340  and  _343
REMARK  136  A    between atoms: _346  and  _348
REMARK  137  A    between atoms: _348  and  _349
REMARK  138  A    between atoms: _352  and  _354
REMARK  139  A    between atoms: _354  and  _355
REMARK  140  A    between atoms: _354  and  _357
REMARK  141  A    between atoms: _357  and  _358
REMARK  142  A    between atoms: _363  and  _365
REMARK  143  A    between atoms: _365  and  _366
REMARK  144  A    between atoms: _365  and  _368
REMARK  145  A    between atoms: _368  and  _369
REMARK  146  A    between atoms: _369  and  _370
REMARK  147  A    between atoms: _370  and  _371
REMARK  148  A    between atoms: _371  and  _372
REMARK  149  A    between atoms: _376  and  _378
REMARK  150  A    between atoms: _378  and  _379
REMARK  151  A    between atoms: _378  and  _381
REMARK  152  A    between atoms: _381  and  _382
REMARK  153  A    between atoms: _385  and  _387
REMARK  154  A    between atoms: _387  and  _388
REMARK  155  A    between atoms: _387  and  _390
REMARK  156  A    between atoms: _390  and  _391
REMARK  157  A    between atoms: _396  and  _398
REMARK  158  A    between atoms: _398  and  _399
REMARK  159  A    between atoms: _401  and  _403
REMARK  160  A    between atoms: _403  and  _404
REMARK  161  A    between atoms: _403  and  _406
REMARK  162  A    between atoms: _406  and  _407
REMARK  163  A    between atoms: _407  and  _408
REMARK  164  A    between atoms: _408  and  _409
REMARK  165  A    between atoms: _409  and  _410
REMARK  166  A    between atoms: _414  and  _416
REMARK  167  A    between atoms: _416  and  _417
REMARK  168  A    between atoms: _416  and  _419
REMARK  169  A    between atoms: _419  and  _420
REMARK  170  A    between atoms: _420  and  _421
REMARK  171  A    between atoms: _421  and  _422
REMARK  172  A    between atoms: _431  and  _433
REMARK  173  A    between atoms: _433  and  _434
REMARK  174  A    between atoms: _433  and  _436
REMARK  175  A    between atoms: _436  and  _437
REMARK  176  A    between atoms: _442  and  _444
REMARK  177  A    between atoms: _444  and  _445
REMARK  178  A    between atoms: _444  and  _447
REMARK  179  A    between atoms: _447  and  _448
REMARK  180  A    between atoms: _453  and  _454
REMARK  181  A    between atoms: _456  and  _458
REMARK  182  A    between atoms: _458  and  _459
REMARK  183  A    between atoms: _458  and  _461
REMARK  184  A    between atoms: _461  and  _462
REMARK  185  A    between atoms: _462  and  _463
REMARK  186  A    between atoms: _463  and  _464
REMARK  187  A    between atoms: _464  and  _465
REMARK  188  A    between atoms: _469  and  _471
REMARK  189  A    between atoms: _471  and  _472
REMARK  190  A    between atoms: _471  and  _474
REMARK  191  A    between atoms: _474  and  _475
REMARK  192  A    between atoms: _477  and  _479
REMARK  193  A    between atoms: _479  and  _480
REMARK  194  A    between atoms: _479  and  _482
REMARK  195  A    between atoms: _482  and  _483
REMARK  196  A    between atoms: _486  and  _488
REMARK  197  A    between atoms: _488  and  _489
REMARK  198  A    between atoms: _488  and  _491
REMARK  199  A    between atoms: _491  and  _492
REMARK  200  A    between atoms: _492  and  _493
REMARK  201  A    between atoms: _496  and  _498
REMARK  202  A    between atoms: _498  and  _499
REMARK  203  A    between atoms: _502  and  _504
REMARK  204  A    between atoms: _504  and  _505
REMARK  205  A    between atoms: _504  and  _507
REMARK  206  A    between atoms: _507  and  _508
REMARK  207  A    between atoms: _510  and  _512
REMARK  208  A    between atoms: _512  and  _513
REMARK  209  A    between atoms: _515  and  _517
REMARK  210  A    between atoms: _517  and  _518
REMARK  211  A    between atoms: _517  and  _520
REMARK  212  A    between atoms: _520  and  _521
REMARK  213  A    between atoms: _524  and  _526
REMARK  214  A    between atoms: _526  and  _527
REMARK  215  A    between atoms: _529  and  _531
REMARK  216  A    between atoms: _531  and  _532
REMARK  217  A    between atoms: _531  and  _534
REMARK  218  A    between atoms: _534  and  _535
REMARK  219  A    between atoms: _540  and  _542
REMARK  220  A    between atoms: _542  and  _543
REMARK  221  A    between atoms: _542  and  _545
REMARK  222  A    between atoms: _545  and  _546
REMARK  223  A    between atoms: _546  and  _547
REMARK  224  A    between atoms: _554  and  _555
REMARK  225  A    between atoms: _555  and  _571
REMARK  226  A    between atoms: _556  and  _558
REMARK  227  A    between atoms: _558  and  _559
REMARK  228  A    between atoms: _559  and  _560
REMARK  229  A    between atoms: _564  and  _566
REMARK  230  A    between atoms: _566  and  _567
REMARK  231  A    between atoms: _566  and  _574
REMARK  232  A    between atoms: _567  and  _568
REMARK  233  A    between atoms: _568  and  _569
REMARK  234  A    between atoms: _569  and  _570
REMARK  235  A    between atoms: _570  and  _571
REMARK  236  A    between atoms: _576  and  _578
REMARK  237  A    between atoms: _578  and  _579
REMARK  238  A    between atoms: _578  and  _581
REMARK  239  A    between atoms: _581  and  _582
REMARK  240  A    between atoms: _585  and  _587
REMARK  241  A    between atoms: _587  and  _588
REMARK  242  A    between atoms: _590  and  _592
REMARK  243  A    between atoms: _592  and  _593
REMARK  244  A    between atoms: _596  and  _598
REMARK  245  A    between atoms: _598  and  _599
REMARK  246  A    between atoms: _598  and  _601
REMARK  247  A    between atoms: _601  and  _602
REMARK  248  A    between atoms: _607  and  _608
REMARK                            x       y       z     vdW  Elec       q    Type
REMARK                         _______ _______ _______ _____ _____    ______ ____
ROOT
ATOM      1  O   HOH     1      27.738  27.217  27.409  0.00  0.00    +0.000 OA
ENDROOT
TORSDOF 0
REMARK  Name = ../refined-set-2016/3g2i/3g2i_pocket.pdb
REMARK  248 active torsions:
REMARK  status: ('A' for Active; 'I' for Inactive)
REMARK    1  A    between atoms: _1  and  _3
REMARK    2  A    between atoms: _3  and  _4
REMARK    3  A    between atoms: _3  and  _6
REMARK    4  A    between atoms: _6  and  _7
REMARK    5  A    between atoms: _12  and  _13
REMARK    6  A    between atoms: _15  and  _17
REMARK    7  A    between atoms: _17  and  _18
REMARK    8  A    between atoms: _17  and  _20
REMARK    9  A    between atoms: _20  and  _21
REMARK   10  A    between atoms: _21  and  _22
REMARK   11  A    between atoms: _25  and  _27
REMARK   12  A    between atoms: _27  and  _28
REMARK   13  A    between atoms: _27  and  _30
REMARK   14  A    between atoms: _30  and  _31
REMARK   15  A    between atoms: _36  and  _38
REMARK   16  A    between atoms: _38  and  _39
REMARK   17  A    between atoms: _41  and  _43
REMARK   18  A    between atoms: _43  and  _44
REMARK   19  A    between atoms: _46  and  _48
REMARK   20  A    between atoms: _48  and  _49
REMARK   21  A    between atoms: _48  and  _51
REMARK   22  A    between atoms: _51  and  _52
REMARK   23  A    between atoms: _55  and  _57
REMARK   24  A    between atoms: _57  and  _58
REMARK   25  A    between atoms: _60  and  _62
REMARK   26  A    between atoms: _62  and  _63
REMARK   27  A    between atoms: _62  and  _65
REMARK   28  A    between atoms: _65  and  _66
REMARK   29  A    between atoms: _66  and  _67
REMARK   30  A    between atoms: _67  and  _68
REMARK   31  A    between atoms: _77  and  _79
REMARK   32  A    between atoms: _79  and  _80
REMARK   33  A    between atoms: _79  and  _82
REMARK   34  A    between atoms: _82  and  _83
REMARK   35  A    between atoms: _86  and  _88
REMARK   36  A    between atoms: _88  and  _89
REMARK   37  A    between atoms: _92  and  _94
REMARK   38  A    between atoms: _94  and  _95
REMARK   39  A    between atoms: _94  and  _97
REMARK   40  A    between atoms: _97  and  _98
REMARK   41  A    between atoms: _104  and  _106
REMARK   42  A    between atoms: _106  and  _107
REMARK   43  A    between atoms: _106  and  _109
REMARK   44  A    between atoms: _109  and  _110
REMARK   45  A    between atoms: _115  and  _117
REMARK   46  A    between atoms: _117  and  _118
REMARK   47  A    between atoms: _117  and  _120
REMARK   48  A    between atoms: _120  and  _121
REMARK   49  A    between atoms: _124  and  _126
REMARK   50  A    between atoms: _126  and  _127
REMARK   51  A    between atoms: _126  and  _129
REMARK   52  A    between atoms: _129  and  _130
REMARK   53  A    between atoms: _135  and  _137
REMARK   54  A    between atoms: _137  and  _138
REMARK   55  A    between atoms: _137  and  _140
REMARK   56  A    between atoms: _140  and  _141
REMARK   57  A    between atoms: _147  and  _149
REMARK   58  A    between atoms: _149  and  _150
REMARK   59  A    between atoms: _149  and  _152
REMARK   60  A    between atoms: _152  and  _153
REMARK   61  A    between atoms: _159  and  _161
REMARK   62  A    between atoms: _161  and  _162
REMARK   63  A    between atoms: _161  and  _164
REMARK   64  A    between atoms: _164  and  _165
REMARK   65  A    between atoms: _165  and  _166
REMARK   66  A    between atoms: _166  and  _167
REMARK   67  A    between atoms: _176  and  _178
REMARK   68  A    between atoms: _178  and  _179
REMARK   69  A    between atoms: _178  and  _181
REMARK   70  A    between atoms: _181  and  _182
REMARK   71  A    between atoms: _187  and  _189
REMARK   72  A    between atoms: _189  and  _190
REMARK   73  A    between atoms: _189  and  _192
REMARK   74  A    between atoms: _192  and  _193
REMARK   75  A    between atoms: _196  and  _198
REMARK   76  A    between atoms: _198  and  _199
REMARK   77  A    between atoms: _198  and  _201
REMARK   78  A    between atoms: _201  and  _202
REMARK   79  A    between atoms: _205  and  _207
REMARK   80  A    between atoms: _207  and  _208
REMARK   81  A    between atoms: _207  and  _210
REMARK   82  A    between atoms: _210  and  _211
REMARK   83  A    between atoms: _216  and  _218
REMARK   84  A    between atoms: _218  and  _219
REMARK   85  A    between atoms: _218  and  _221
REMARK   86  A    between atoms: _221  and  _222
REMARK   87  A    between atoms: _227  and  _228
REMARK   88  A    between atoms: _230  and  _232
REMARK   89  A    between atoms: _232  and  _233
REMARK   90  A    between atoms: _232  and  _235
REMARK   91  A    between atoms: _235  and  _236
REMARK   92  A    between atoms: _239  and  _241
REMARK   93  A    between atoms: _241  and  _242
REMARK   94  A    between atoms: _241  and  _244
REMARK   95  A    between atoms: _244  and  _245
REMARK   96  A    between atoms: _250  and  _252
REMARK   97  A    between atoms: _252  and  _253
REMARK   98  A    between atoms: _252  and  _255
REMARK   99  A    between atoms: _255  and  _256
REMARK  100  A    between atoms: _261  and  _263
REMARK  101  A    between atoms: _263  and  _264
REMARK  102  A    between atoms: _263  and  _266
REMARK  103  A    between atoms: _266  and  _267
REMARK  104  A    between atoms: _270  and  _272
REMARK  105  A    between atoms: _272  and  _273
REMARK  106  A    between atoms: _272  and  _275
REMARK  107  A    between atoms: _278  and  _280
REMARK  108  A    between atoms: _280  and  _281
REMARK  109  A    between atoms: _280  and  _283
REMARK  110  A    between atoms: _283  and  _284
REMARK  111  A    between atoms: _287  and  _289
REMARK  112  A    between atoms: _289  and  _290
REMARK  113  A    between atoms: _289  and  _292
REMARK  114  A    between atoms: _292  and  _293
REMARK  115  A    between atoms: _293  and  _294
REMARK  116  A    between atoms: _297  and  _299
REMARK  117  A    between atoms: _299  and  _300
REMARK  118  A    between atoms: _303  and  _305
REMARK  119  A    between atoms: _305  and  _306
REMARK  120  A    between atoms: _305  and  _308
REMARK  121  A    between atoms: _308  and  _309
REMARK  122  A    between atoms: _312  and  _314
REMARK  123  A    between atoms: _314  and  _315
REMARK  124  A    between atoms: _314  and  _317
REMARK  125  A    between atoms: _317  and  _318
REMARK  126  A    between atoms: _318  and  _319
REMARK  127  A    between atoms: _322  and  _324
REMARK  128  A    between atoms: _324  and  _325
REMARK  129  A    between atoms: _324  and  _327
REMARK  130  A    between atoms: _327  and  _328
REMARK  131  A    between atoms: _333  and  _335
REMARK  132  A    between atoms: _335  and  _336
REMARK  133  A    between atoms: _338  and  _340
REMARK  134  A    between atoms: _340  and  _341
REMARK  135  A    between atoms: _340  and  _343
REMARK  136  A    between atoms: _346  and  _348
REMARK  137  A    between atoms: _348  and  _349
REMARK  138  A    between atoms: _352  and  _354
REMARK  139  A    between atoms: _354  and  _355
REMARK  140  A    between atoms: _354  and  _357
REMARK  141  A    between atoms: _357  and  _358
REMARK  142  A    between atoms: _363  and  _365
REMARK  143  A    between atoms: _365  and  _366
REMARK  144  A    between atoms: _365  and  _368
REMARK  145  A    between atoms: _368  and  _369
REMARK  146  A    between atoms: _369  and  _370
REMARK  147  A    between atoms: _370  and  _371
REMARK  148  A    between atoms: _371  and  _372
REMARK  149  A    between atoms: _376  and  _378
REMARK  150  A    between atoms: _378  and  _379
REMARK  151  A    between atoms: _378  and  _381
REMARK  152  A    between atoms: _381  and  _382
REMARK  153  A    between atoms: _385  and  _387
REMARK  154  A    between atoms: _387  and  _388
REMARK  155  A    between atoms: _387  and  _390
REMARK  156  A    between atoms: _390  and  _391
REMARK  157  A    between atoms: _396  and  _398
REMARK  158  A    between atoms: _398  and  _399
REMARK  159  A    between atoms: _401  and  _403
REMARK  160  A    between atoms: _403  and  _404
REMARK  161  A    between atoms: _403  and  _406
REMARK  162  A    between atoms: _406  and  _407
REMARK  163  A    between atoms: _407  and  _408
REMARK  164  A    between atoms: _408  and  _409
REMARK  165  A    between atoms: _409  and  _410
REMARK  166  A    between atoms: _414  and  _416
REMARK  167  A    between atoms: _416  and  _417
REMARK  168  A    between atoms: _416  and  _419
REMARK  169  A    between atoms: _419  and  _420
REMARK  170  A    between atoms: _420  and  _421
REMARK  171  A    between atoms: _421  and  _422
REMARK  172  A    between atoms: _431  and  _433
REMARK  173  A    between atoms: _433  and  _434
REMARK  174  A    between atoms: _433  and  _436
REMARK  175  A    between atoms: _436  and  _437
REMARK  176  A    between atoms: _442  and  _444
REMARK  177  A    between atoms: _444  and  _445
REMARK  178  A    between atoms: _444  and  _447
REMARK  179  A    between atoms: _447  and  _448
REMARK  180  A    between atoms: _453  and  _454
REMARK  181  A    between atoms: _456  and  _458
REMARK  182  A    between atoms: _458  and  _459
REMARK  183  A    between atoms: _458  and  _461
REMARK  184  A    between atoms: _461  and  _462
REMARK  185  A    between atoms: _462  and  _463
REMARK  186  A    between atoms: _463  and  _464
REMARK  187  A    between atoms: _464  and  _465
REMARK  188  A    between atoms: _469  and  _471
REMARK  189  A    between atoms: _471  and  _472
REMARK  190  A    between atoms: _471  and  _474
REMARK  191  A    between atoms: _474  and  _475
REMARK  192  A    between atoms: _477  and  _479
REMARK  193  A    between atoms: _479  and  _480
REMARK  194  A    between atoms: _479  and  _482
REMARK  195  A    between atoms: _482  and  _483
REMARK  196  A    between atoms: _486  and  _488
REMARK  197  A    between atoms: _488  and  _489
REMARK  198  A    between atoms: _488  and  _491
REMARK  199  A    between atoms: _491  and  _492
REMARK  200  A    between atoms: _492  and  _493
REMARK  201  A    between atoms: _496  and  _498
REMARK  202  A    between atoms: _498  and  _499
REMARK  203  A    between atoms: _502  and  _504
REMARK  204  A    between atoms: _504  and  _505
REMARK  205  A    between atoms: _504  and  _507
REMARK  206  A    between atoms: _507  and  _508
REMARK  207  A    between atoms: _510  and  _512
REMARK  208  A    between atoms: _512  and  _513
REMARK  209  A    between atoms: _515  and  _517
REMARK  210  A    between atoms: _517  and  _518
REMARK  211  A    between atoms: _517  and  _520
REMARK  212  A    between atoms: _520  and  _521
REMARK  213  A    between atoms: _524  and  _526
REMARK  214  A    between atoms: _526  and  _527
REMARK  215  A    between atoms: _529  and  _531
REMARK  216  A    between atoms: _531  and  _532
REMARK  217  A    between atoms: _531  and  _534
REMARK  218  A    between atoms: _534  and  _535
REMARK  219  A    between atoms: _540  and  _542
REMARK  220  A    between atoms: _542  and  _543
REMARK  221  A    between atoms: _542  and  _545
REMARK  222  A    between atoms: _545  and  _546
REMARK  223  A    between atoms: _546  and  _547
REMARK  224  A    between atoms: _554  and  _555
REMARK  225  A    between atoms: _555  and  _571
REMARK  226  A    between atoms: _556  and  _558
REMARK  227  A    between atoms: _558  and  _559
REMARK  228  A    between atoms: _559  and  _560
REMARK  229  A    between atoms: _564  and  _566
REMARK  230  A    between atoms: _566  and  _567
REMARK  231  A    between atoms: _566  and  _574
REMARK  232  A    between atoms: _567  and  _568
REMARK  233  A    between atoms: _568  and  _569
REMARK  234  A    between atoms: _569  and  _570
REMARK  235  A    between atoms: _570  and  _571
REMARK  236  A    between atoms: _576  and  _578
REMARK  237  A    between atoms: _578  and  _579
REMARK  238  A    between atoms: _578  and  _581
REMARK  239  A    between atoms: _581  and  _582
REMARK  240  A    between atoms: _585  and  _587
REMARK  241  A    between atoms: _587  and  _588
REMARK  242  A    between atoms: _590  and  _592
REMARK  243  A    between atoms: _592  and  _593
REMARK  244  A    between atoms: _596  and  _598
REMARK  245  A    between atoms: _598  and  _599
REMARK  246  A    between atoms: _598  and  _601
REMARK  247  A    between atoms: _601  and  _602
REMARK  248  A    between atoms: _607  and  _608
REMARK                            x       y       z     vdW  Elec       q    Type
REMARK                         _______ _______ _______ _____ _____    ______ ____
ROOT
ATOM      1  O   HOH     1      26.627  23.251  21.426  0.00  0.00    +0.000 OA
ENDROOT
TORSDOF 0
REMARK  Name = ../refined-set-2016/3g2i/3g2i_pocket.pdb
REMARK  248 active torsions:
REMARK  status: ('A' for Active; 'I' for Inactive)
REMARK    1  A    between atoms: _1  and  _3
REMARK    2  A    between atoms: _3  and  _4
REMARK    3  A    between atoms: _3  and  _6
REMARK    4  A    between atoms: _6  and  _7
REMARK    5  A    between atoms: _12  and  _13
REMARK    6  A    between atoms: _15  and  _17
REMARK    7  A    between atoms: _17  and  _18
REMARK    8  A    between atoms: _17  and  _20
REMARK    9  A    between atoms: _20  and  _21
REMARK   10  A    between atoms: _21  and  _22
REMARK   11  A    between atoms: _25  and  _27
REMARK   12  A    between atoms: _27  and  _28
REMARK   13  A    between atoms: _27  and  _30
REMARK   14  A    between atoms: _30  and  _31
REMARK   15  A    between atoms: _36  and  _38
REMARK   16  A    between atoms: _38  and  _39
REMARK   17  A    between atoms: _41  and  _43
REMARK   18  A    between atoms: _43  and  _44
REMARK   19  A    between atoms: _46  and  _48
REMARK   20  A    between atoms: _48  and  _49
REMARK   21  A    between atoms: _48  and  _51
REMARK   22  A    between atoms: _51  and  _52
REMARK   23  A    between atoms: _55  and  _57
REMARK   24  A    between atoms: _57  and  _58
REMARK   25  A    between atoms: _60  and  _62
REMARK   26  A    between atoms: _62  and  _63
REMARK   27  A    between atoms: _62  and  _65
REMARK   28  A    between atoms: _65  and  _66
REMARK   29  A    between atoms: _66  and  _67
REMARK   30  A    between atoms: _67  and  _68
REMARK   31  A    between atoms: _77  and  _79
REMARK   32  A    between atoms: _79  and  _80
REMARK   33  A    between atoms: _79  and  _82
REMARK   34  A    between atoms: _82  and  _83
REMARK   35  A    between atoms: _86  and  _88
REMARK   36  A    between atoms: _88  and  _89
REMARK   37  A    between atoms: _92  and  _94
REMARK   38  A    between atoms: _94  and  _95
REMARK   39  A    between atoms: _94  and  _97
REMARK   40  A    between atoms: _97  and  _98
REMARK   41  A    between atoms: _104  and  _106
REMARK   42  A    between atoms: _106  and  _107
REMARK   43  A    between atoms: _106  and  _109
REMARK   44  A    between atoms: _109  and  _110
REMARK   45  A    between atoms: _115  and  _117
REMARK   46  A    between atoms: _117  and  _118
REMARK   47  A    between atoms: _117  and  _120
REMARK   48  A    between atoms: _120  and  _121
REMARK   49  A    between atoms: _124  and  _126
REMARK   50  A    between atoms: _126  and  _127
REMARK   51  A    between atoms: _126  and  _129
REMARK   52  A    between atoms: _129  and  _130
REMARK   53  A    between atoms: _135  and  _137
REMARK   54  A    between atoms: _137  and  _138
REMARK   55  A    between atoms: _137  and  _140
REMARK   56  A    between atoms: _140  and  _141
REMARK   57  A    between atoms: _147  and  _149
REMARK   58  A    between atoms: _149  and  _150
REMARK   59  A    between atoms: _149  and  _152
REMARK   60  A    between atoms: _152  and  _153
REMARK   61  A    between atoms: _159  and  _161
REMARK   62  A    between atoms: _161  and  _162
REMARK   63  A    between atoms: _161  and  _164
REMARK   64  A    between atoms: _164  and  _165
REMARK   65  A    between atoms: _165  and  _166
REMARK   66  A    between atoms: _166  and  _167
REMARK   67  A    between atoms: _176  and  _178
REMARK   68  A    between atoms: _178  and  _179
REMARK   69  A    between atoms: _178  and  _181
REMARK   70  A    between atoms: _181  and  _182
REMARK   71  A    between atoms: _187  and  _189
REMARK   72  A    between atoms: _189  and  _190
REMARK   73  A    between atoms: _189  and  _192
REMARK   74  A    between atoms: _192  and  _193
REMARK   75  A    between atoms: _196  and  _198
REMARK   76  A    between atoms: _198  and  _199
REMARK   77  A    between atoms: _198  and  _201
REMARK   78  A    between atoms: _201  and  _202
REMARK   79  A    between atoms: _205  and  _207
REMARK   80  A    between atoms: _207  and  _208
REMARK   81  A    between atoms: _207  and  _210
REMARK   82  A    between atoms: _210  and  _211
REMARK   83  A    between atoms: _216  and  _218
REMARK   84  A    between atoms: _218  and  _219
REMARK   85  A    between atoms: _218  and  _221
REMARK   86  A    between atoms: _221  and  _222
REMARK   87  A    between atoms: _227  and  _228
REMARK   88  A    between atoms: _230  and  _232
REMARK   89  A    between atoms: _232  and  _233
REMARK   90  A    between atoms: _232  and  _235
REMARK   91  A    between atoms: _235  and  _236
REMARK   92  A    between atoms: _239  and  _241
REMARK   93  A    between atoms: _241  and  _242
REMARK   94  A    between atoms: _241  and  _244
REMARK   95  A    between atoms: _244  and  _245
REMARK   96  A    between atoms: _250  and  _252
REMARK   97  A    between atoms: _252  and  _253
REMARK   98  A    between atoms: _252  and  _255
REMARK   99  A    between atoms: _255  and  _256
REMARK  100  A    between atoms: _261  and  _263
REMARK  101  A    between atoms: _263  and  _264
REMARK  102  A    between atoms: _263  and  _266
REMARK  103  A    between atoms: _266  and  _267
REMARK  104  A    between atoms: _270  and  _272
REMARK  105  A    between atoms: _272  and  _273
REMARK  106  A    between atoms: _272  and  _275
REMARK  107  A    between atoms: _278  and  _280
REMARK  108  A    between atoms: _280  and  _281
REMARK  109  A    between atoms: _280  and  _283
REMARK  110  A    between atoms: _283  and  _284
REMARK  111  A    between atoms: _287  and  _289
REMARK  112  A    between atoms: _289  and  _290
REMARK  113  A    between atoms: _289  and  _292
REMARK  114  A    between atoms: _292  and  _293
REMARK  115  A    between atoms: _293  and  _294
REMARK  116  A    between atoms: _297  and  _299
REMARK  117  A    between atoms: _299  and  _300
REMARK  118  A    between atoms: _303  and  _305
REMARK  119  A    between atoms: _305  and  _306
REMARK  120  A    between atoms: _305  and  _308
REMARK  121  A    between atoms: _308  and  _309
REMARK  122  A    between atoms: _312  and  _314
REMARK  123  A    between atoms: _314  and  _315
REMARK  124  A    between atoms: _314  and  _317
REMARK  125  A    between atoms: _317  and  _318
REMARK  126  A    between atoms: _318  and  _319
REMARK  127  A    between atoms: _322  and  _324
REMARK  128  A    between atoms: _324  and  _325
REMARK  129  A    between atoms: _324  and  _327
REMARK  130  A    between atoms: _327  and  _328
REMARK  131  A    between atoms: _333  and  _335
REMARK  132  A    between atoms: _335  and  _336
REMARK  133  A    between atoms: _338  and  _340
REMARK  134  A    between atoms: _340  and  _341
REMARK  135  A    between atoms: _340  and  _343
REMARK  136  A    between atoms: _346  and  _348
REMARK  137  A    between atoms: _348  and  _349
REMARK  138  A    between atoms: _352  and  _354
REMARK  139  A    between atoms: _354  and  _355
REMARK  140  A    between atoms: _354  and  _357
REMARK  141  A    between atoms: _357  and  _358
REMARK  142  A    between atoms: _363  and  _365
REMARK  143  A    between atoms: _365  and  _366
REMARK  144  A    between atoms: _365  and  _368
REMARK  145  A    between atoms: _368  and  _369
REMARK  146  A    between atoms: _369  and  _370
REMARK  147  A    between atoms: _370  and  _371
REMARK  148  A    between atoms: _371  and  _372
REMARK  149  A    between atoms: _376  and  _378
REMARK  150  A    between atoms: _378  and  _379
REMARK  151  A    between atoms: _378  and  _381
REMARK  152  A    between atoms: _381  and  _382
REMARK  153  A    between atoms: _385  and  _387
REMARK  154  A    between atoms: _387  and  _388
REMARK  155  A    between atoms: _387  and  _390
REMARK  156  A    between atoms: _390  and  _391
REMARK  157  A    between atoms: _396  and  _398
REMARK  158  A    between atoms: _398  and  _399
REMARK  159  A    between atoms: _401  and  _403
REMARK  160  A    between atoms: _403  and  _404
REMARK  161  A    between atoms: _403  and  _406
REMARK  162  A    between atoms: _406  and  _407
REMARK  163  A    between atoms: _407  and  _408
REMARK  164  A    between atoms: _408  and  _409
REMARK  165  A    between atoms: _409  and  _410
REMARK  166  A    between atoms: _414  and  _416
REMARK  167  A    between atoms: _416  and  _417
REMARK  168  A    between atoms: _416  and  _419
REMARK  169  A    between atoms: _419  and  _420
REMARK  170  A    between atoms: _420  and  _421
REMARK  171  A    between atoms: _421  and  _422
REMARK  172  A    between atoms: _431  and  _433
REMARK  173  A    between atoms: _433  and  _434
REMARK  174  A    between atoms: _433  and  _436
REMARK  175  A    between atoms: _436  and  _437
REMARK  176  A    between atoms: _442  and  _444
REMARK  177  A    between atoms: _444  and  _445
REMARK  178  A    between atoms: _444  and  _447
REMARK  179  A    between atoms: _447  and  _448
REMARK  180  A    between atoms: _453  and  _454
REMARK  181  A    between atoms: _456  and  _458
REMARK  182  A    between atoms: _458  and  _459
REMARK  183  A    between atoms: _458  and  _461
REMARK  184  A    between atoms: _461  and  _462
REMARK  185  A    between atoms: _462  and  _463
REMARK  186  A    between atoms: _463  and  _464
REMARK  187  A    between atoms: _464  and  _465
REMARK  188  A    between atoms: _469  and  _471
REMARK  189  A    between atoms: _471  and  _472
REMARK  190  A    between atoms: _471  and  _474
REMARK  191  A    between atoms: _474  and  _475
REMARK  192  A    between atoms: _477  and  _479
REMARK  193  A    between atoms: _479  and  _480
REMARK  194  A    between atoms: _479  and  _482
REMARK  195  A    between atoms: _482  and  _483
REMARK  196  A    between atoms: _486  and  _488
REMARK  197  A    between atoms: _488  and  _489
REMARK  198  A    between atoms: _488  and  _491
REMARK  199  A    between atoms: _491  and  _492
REMARK  200  A    between atoms: _492  and  _493
REMARK  201  A    between atoms: _496  and  _498
REMARK  202  A    between atoms: _498  and  _499
REMARK  203  A    between atoms: _502  and  _504
REMARK  204  A    between atoms: _504  and  _505
REMARK  205  A    between atoms: _504  and  _507
REMARK  206  A    between atoms: _507  and  _508
REMARK  207  A    between atoms: _510  and  _512
REMARK  208  A    between atoms: _512  and  _513
REMARK  209  A    between atoms: _515  and  _517
REMARK  210  A    between atoms: _517  and  _518
REMARK  211  A    between atoms: _517  and  _520
REMARK  212  A    between atoms: _520  and  _521
REMARK  213  A    between atoms: _524  and  _526
REMARK  214  A    between atoms: _526  and  _527
REMARK  215  A    between atoms: _529  and  _531
REMARK  216  A    between atoms: _531  and  _532
REMARK  217  A    between atoms: _531  and  _534
REMARK  218  A    between atoms: _534  and  _535
REMARK  219  A    between atoms: _540  and  _542
REMARK  220  A    between atoms: _542  and  _543
REMARK  221  A    between atoms: _542  and  _545
REMARK  222  A    between atoms: _545  and  _546
REMARK  223  A    between atoms: _546  and  _547
REMARK  224  A    between atoms: _554  and  _555
REMARK  225  A    between atoms: _555  and  _571
REMARK  226  A    between atoms: _556  and  _558
REMARK  227  A    between atoms: _558  and  _559
REMARK  228  A    between atoms: _559  and  _560
REMARK  229  A    between atoms: _564  and  _566
REMARK  230  A    between atoms: _566  and  _567
REMARK  231  A    between atoms: _566  and  _574
REMARK  232  A    between atoms: _567  and  _568
REMARK  233  A    between atoms: _568  and  _569
REMARK  234  A    between atoms: _569  and  _570
REMARK  235  A    between atoms: _570  and  _571
REMARK  236  A    between atoms: _576  and  _578
REMARK  237  A    between atoms: _578  and  _579
REMARK  238  A    between atoms: _578  and  _581
REMARK  239  A    between atoms: _581  and  _582
REMARK  240  A    between atoms: _585  and  _587
REMARK  241  A    between atoms: _587  and  _588
REMARK  242  A    between atoms: _590  and  _592
REMARK  243  A    between atoms: _592  and  _593
REMARK  244  A    between atoms: _596  and  _598
REMARK  245  A    between atoms: _598  and  _599
REMARK  246  A    between atoms: _598  and  _601
REMARK  247  A    between atoms: _601  and  _602
REMARK  248  A    between atoms: _607  and  _608
REMARK                            x       y       z     vdW  Elec       q    Type
REMARK                         _______ _______ _______ _____ _____    ______ ____
ROOT
ATOM      1  O   HOH     1      34.949  12.625  30.724  0.00  0.00    +0.000 OA
ENDROOT
TORSDOF 0
REMARK  Name = ../refined-set-2016/3g2i/3g2i_pocket.pdb
REMARK  248 active torsions:
REMARK  status: ('A' for Active; 'I' for Inactive)
REMARK    1  A    between atoms: _1  and  _3
REMARK    2  A    between atoms: _3  and  _4
REMARK    3  A    between atoms: _3  and  _6
REMARK    4  A    between atoms: _6  and  _7
REMARK    5  A    between atoms: _12  and  _13
REMARK    6  A    between atoms: _15  and  _17
REMARK    7  A    between atoms: _17  and  _18
REMARK    8  A    between atoms: _17  and  _20
REMARK    9  A    between atoms: _20  and  _21
REMARK   10  A    between atoms: _21  and  _22
REMARK   11  A    between atoms: _25  and  _27
REMARK   12  A    between atoms: _27  and  _28
REMARK   13  A    between atoms: _27  and  _30
REMARK   14  A    between atoms: _30  and  _31
REMARK   15  A    between atoms: _36  and  _38
REMARK   16  A    between atoms: _38  and  _39
REMARK   17  A    between atoms: _41  and  _43
REMARK   18  A    between atoms: _43  and  _44
REMARK   19  A    between atoms: _46  and  _48
REMARK   20  A    between atoms: _48  and  _49
REMARK   21  A    between atoms: _48  and  _51
REMARK   22  A    between atoms: _51  and  _52
REMARK   23  A    between atoms: _55  and  _57
REMARK   24  A    between atoms: _57  and  _58
REMARK   25  A    between atoms: _60  and  _62
REMARK   26  A    between atoms: _62  and  _63
REMARK   27  A    between atoms: _62  and  _65
REMARK   28  A    between atoms: _65  and  _66
REMARK   29  A    between atoms: _66  and  _67
REMARK   30  A    between atoms: _67  and  _68
REMARK   31  A    between atoms: _77  and  _79
REMARK   32  A    between atoms: _79  and  _80
REMARK   33  A    between atoms: _79  and  _82
REMARK   34  A    between atoms: _82  and  _83
REMARK   35  A    between atoms: _86  and  _88
REMARK   36  A    between atoms: _88  and  _89
REMARK   37  A    between atoms: _92  and  _94
REMARK   38  A    between atoms: _94  and  _95
REMARK   39  A    between atoms: _94  and  _97
REMARK   40  A    between atoms: _97  and  _98
REMARK   41  A    between atoms: _104  and  _106
REMARK   42  A    between atoms: _106  and  _107
REMARK   43  A    between atoms: _106  and  _109
REMARK   44  A    between atoms: _109  and  _110
REMARK   45  A    between atoms: _115  and  _117
REMARK   46  A    between atoms: _117  and  _118
REMARK   47  A    between atoms: _117  and  _120
REMARK   48  A    between atoms: _120  and  _121
REMARK   49  A    between atoms: _124  and  _126
REMARK   50  A    between atoms: _126  and  _127
REMARK   51  A    between atoms: _126  and  _129
REMARK   52  A    between atoms: _129  and  _130
REMARK   53  A    between atoms: _135  and  _137
REMARK   54  A    between atoms: _137  and  _138
REMARK   55  A    between atoms: _137  and  _140
REMARK   56  A    between atoms: _140  and  _141
REMARK   57  A    between atoms: _147  and  _149
REMARK   58  A    between atoms: _149  and  _150
REMARK   59  A    between atoms: _149  and  _152
REMARK   60  A    between atoms: _152  and  _153
REMARK   61  A    between atoms: _159  and  _161
REMARK   62  A    between atoms: _161  and  _162
REMARK   63  A    between atoms: _161  and  _164
REMARK   64  A    between atoms: _164  and  _165
REMARK   65  A    between atoms: _165  and  _166
REMARK   66  A    between atoms: _166  and  _167
REMARK   67  A    between atoms: _176  and  _178
REMARK   68  A    between atoms: _178  and  _179
REMARK   69  A    between atoms: _178  and  _181
REMARK   70  A    between atoms: _181  and  _182
REMARK   71  A    between atoms: _187  and  _189
REMARK   72  A    between atoms: _189  and  _190
REMARK   73  A    between atoms: _189  and  _192
REMARK   74  A    between atoms: _192  and  _193
REMARK   75  A    between atoms: _196  and  _198
REMARK   76  A    between atoms: _198  and  _199
REMARK   77  A    between atoms: _198  and  _201
REMARK   78  A    between atoms: _201  and  _202
REMARK   79  A    between atoms: _205  and  _207
REMARK   80  A    between atoms: _207  and  _208
REMARK   81  A    between atoms: _207  and  _210
REMARK   82  A    between atoms: _210  and  _211
REMARK   83  A    between atoms: _216  and  _218
REMARK   84  A    between atoms: _218  and  _219
REMARK   85  A    between atoms: _218  and  _221
REMARK   86  A    between atoms: _221  and  _222
REMARK   87  A    between atoms: _227  and  _228
REMARK   88  A    between atoms: _230  and  _232
REMARK   89  A    between atoms: _232  and  _233
REMARK   90  A    between atoms: _232  and  _235
REMARK   91  A    between atoms: _235  and  _236
REMARK   92  A    between atoms: _239  and  _241
REMARK   93  A    between atoms: _241  and  _242
REMARK   94  A    between atoms: _241  and  _244
REMARK   95  A    between atoms: _244  and  _245
REMARK   96  A    between atoms: _250  and  _252
REMARK   97  A    between atoms: _252  and  _253
REMARK   98  A    between atoms: _252  and  _255
REMARK   99  A    between atoms: _255  and  _256
REMARK  100  A    between atoms: _261  and  _263
REMARK  101  A    between atoms: _263  and  _264
REMARK  102  A    between atoms: _263  and  _266
REMARK  103  A    between atoms: _266  and  _267
REMARK  104  A    between atoms: _270  and  _272
REMARK  105  A    between atoms: _272  and  _273
REMARK  106  A    between atoms: _272  and  _275
REMARK  107  A    between atoms: _278  and  _280
REMARK  108  A    between atoms: _280  and  _281
REMARK  109  A    between atoms: _280  and  _283
REMARK  110  A    between atoms: _283  and  _284
REMARK  111  A    between atoms: _287  and  _289
REMARK  112  A    between atoms: _289  and  _290
REMARK  113  A    between atoms: _289  and  _292
REMARK  114  A    between atoms: _292  and  _293
REMARK  115  A    between atoms: _293  and  _294
REMARK  116  A    between atoms: _297  and  _299
REMARK  117  A    between atoms: _299  and  _300
REMARK  118  A    between atoms: _303  and  _305
REMARK  119  A    between atoms: _305  and  _306
REMARK  120  A    between atoms: _305  and  _308
REMARK  121  A    between atoms: _308  and  _309
REMARK  122  A    between atoms: _312  and  _314
REMARK  123  A    between atoms: _314  and  _315
REMARK  124  A    between atoms: _314  and  _317
REMARK  125  A    between atoms: _317  and  _318
REMARK  126  A    between atoms: _318  and  _319
REMARK  127  A    between atoms: _322  and  _324
REMARK  128  A    between atoms: _324  and  _325
REMARK  129  A    between atoms: _324  and  _327
REMARK  130  A    between atoms: _327  and  _328
REMARK  131  A    between atoms: _333  and  _335
REMARK  132  A    between atoms: _335  and  _336
REMARK  133  A    between atoms: _338  and  _340
REMARK  134  A    between atoms: _340  and  _341
REMARK  135  A    between atoms: _340  and  _343
REMARK  136  A    between atoms: _346  and  _348
REMARK  137  A    between atoms: _348  and  _349
REMARK  138  A    between atoms: _352  and  _354
REMARK  139  A    between atoms: _354  and  _355
REMARK  140  A    between atoms: _354  and  _357
REMARK  141  A    between atoms: _357  and  _358
REMARK  142  A    between atoms: _363  and  _365
REMARK  143  A    between atoms: _365  and  _366
REMARK  144  A    between atoms: _365  and  _368
REMARK  145  A    between atoms: _368  and  _369
REMARK  146  A    between atoms: _369  and  _370
REMARK  147  A    between atoms: _370  and  _371
REMARK  148  A    between atoms: _371  and  _372
REMARK  149  A    between atoms: _376  and  _378
REMARK  150  A    between atoms: _378  and  _379
REMARK  151  A    between atoms: _378  and  _381
REMARK  152  A    between atoms: _381  and  _382
REMARK  153  A    between atoms: _385  and  _387
REMARK  154  A    between atoms: _387  and  _388
REMARK  155  A    between atoms: _387  and  _390
REMARK  156  A    between atoms: _390  and  _391
REMARK  157  A    between atoms: _396  and  _398
REMARK  158  A    between atoms: _398  and  _399
REMARK  159  A    between atoms: _401  and  _403
REMARK  160  A    between atoms: _403  and  _404
REMARK  161  A    between atoms: _403  and  _406
REMARK  162  A    between atoms: _406  and  _407
REMARK  163  A    between atoms: _407  and  _408
REMARK  164  A    between atoms: _408  and  _409
REMARK  165  A    between atoms: _409  and  _410
REMARK  166  A    between atoms: _414  and  _416
REMARK  167  A    between atoms: _416  and  _417
REMARK  168  A    between atoms: _416  and  _419
REMARK  169  A    between atoms: _419  and  _420
REMARK  170  A    between atoms: _420  and  _421
REMARK  171  A    between atoms: _421  and  _422
REMARK  172  A    between atoms: _431  and  _433
REMARK  173  A    between atoms: _433  and  _434
REMARK  174  A    between atoms: _433  and  _436
REMARK  175  A    between atoms: _436  and  _437
REMARK  176  A    between atoms: _442  and  _444
REMARK  177  A    between atoms: _444  and  _445
REMARK  178  A    between atoms: _444  and  _447
REMARK  179  A    between atoms: _447  and  _448
REMARK  180  A    between atoms: _453  and  _454
REMARK  181  A    between atoms: _456  and  _458
REMARK  182  A    between atoms: _458  and  _459
REMARK  183  A    between atoms: _458  and  _461
REMARK  184  A    between atoms: _461  and  _462
REMARK  185  A    between atoms: _462  and  _463
REMARK  186  A    between atoms: _463  and  _464
REMARK  187  A    between atoms: _464  and  _465
REMARK  188  A    between atoms: _469  and  _471
REMARK  189  A    between atoms: _471  and  _472
REMARK  190  A    between atoms: _471  and  _474
REMARK  191  A    between atoms: _474  and  _475
REMARK  192  A    between atoms: _477  and  _479
REMARK  193  A    between atoms: _479  and  _480
REMARK  194  A    between atoms: _479  and  _482
REMARK  195  A    between atoms: _482  and  _483
REMARK  196  A    between atoms: _486  and  _488
REMARK  197  A    between atoms: _488  and  _489
REMARK  198  A    between atoms: _488  and  _491
REMARK  199  A    between atoms: _491  and  _492
REMARK  200  A    between atoms: _492  and  _493
REMARK  201  A    between atoms: _496  and  _498
REMARK  202  A    between atoms: _498  and  _499
REMARK  203  A    between atoms: _502  and  _504
REMARK  204  A    between atoms: _504  and  _505
REMARK  205  A    between atoms: _504  and  _507
REMARK  206  A    between atoms: _507  and  _508
REMARK  207  A    between atoms: _510  and  _512
REMARK  208  A    between atoms: _512  and  _513
REMARK  209  A    between atoms: _515  and  _517
REMARK  210  A    between atoms: _517  and  _518
REMARK  211  A    between atoms: _517  and  _520
REMARK  212  A    between atoms: _520  and  _521
REMARK  213  A    between atoms: _524  and  _526
REMARK  214  A    between atoms: _526  and  _527
REMARK  215  A    between atoms: _529  and  _531
REMARK  216  A    between atoms: _531  and  _532
REMARK  217  A    between atoms: _531  and  _534
REMARK  218  A    between atoms: _534  and  _535
REMARK  219  A    between atoms: _540  and  _542
REMARK  220  A    between atoms: _542  and  _543
REMARK  221  A    between atoms: _542  and  _545
REMARK  222  A    between atoms: _545  and  _546
REMARK  223  A    between atoms: _546  and  _547
REMARK  224  A    between atoms: _554  and  _555
REMARK  225  A    between atoms: _555  and  _571
REMARK  226  A    between atoms: _556  and  _558
REMARK  227  A    between atoms: _558  and  _559
REMARK  228  A    between atoms: _559  and  _560
REMARK  229  A    between atoms: _564  and  _566
REMARK  230  A    between atoms: _566  and  _567
REMARK  231  A    between atoms: _566  and  _574
REMARK  232  A    between atoms: _567  and  _568
REMARK  233  A    between atoms: _568  and  _569
REMARK  234  A    between atoms: _569  and  _570
REMARK  235  A    between atoms: _570  and  _571
REMARK  236  A    between atoms: _576  and  _578
REMARK  237  A    between atoms: _578  and  _579
REMARK  238  A    between atoms: _578  and  _581
REMARK  239  A    between atoms: _581  and  _582
REMARK  240  A    between atoms: _585  and  _587
REMARK  241  A    between atoms: _587  and  _588
REMARK  242  A    between atoms: _590  and  _592
REMARK  243  A    between atoms: _592  and  _593
REMARK  244  A    between atoms: _596  and  _598
REMARK  245  A    between atoms: _598  and  _599
REMARK  246  A    between atoms: _598  and  _601
REMARK  247  A    between atoms: _601  and  _602
REMARK  248  A    between atoms: _607  and  _608
REMARK                            x       y       z     vdW  Elec       q    Type
REMARK                         _______ _______ _______ _____ _____    ______ ____
ROOT
ATOM      1  O   HOH     1      36.409  19.274  36.632  0.00  0.00    +0.000 OA
ENDROOT
TORSDOF 0
REMARK  Name = ../refined-set-2016/3g2i/3g2i_pocket.pdb
REMARK  248 active torsions:
REMARK  status: ('A' for Active; 'I' for Inactive)
REMARK    1  A    between atoms: _1  and  _3
REMARK    2  A    between atoms: _3  and  _4
REMARK    3  A    between atoms: _3  and  _6
REMARK    4  A    between atoms: _6  and  _7
REMARK    5  A    between atoms: _12  and  _13
REMARK    6  A    between atoms: _15  and  _17
REMARK    7  A    between atoms: _17  and  _18
REMARK    8  A    between atoms: _17  and  _20
REMARK    9  A    between atoms: _20  and  _21
REMARK   10  A    between atoms: _21  and  _22
REMARK   11  A    between atoms: _25  and  _27
REMARK   12  A    between atoms: _27  and  _28
REMARK   13  A    between atoms: _27  and  _30
REMARK   14  A    between atoms: _30  and  _31
REMARK   15  A    between atoms: _36  and  _38
REMARK   16  A    between atoms: _38  and  _39
REMARK   17  A    between atoms: _41  and  _43
REMARK   18  A    between atoms: _43  and  _44
REMARK   19  A    between atoms: _46  and  _48
REMARK   20  A    between atoms: _48  and  _49
REMARK   21  A    between atoms: _48  and  _51
REMARK   22  A    between atoms: _51  and  _52
REMARK   23  A    between atoms: _55  and  _57
REMARK   24  A    between atoms: _57  and  _58
REMARK   25  A    between atoms: _60  and  _62
REMARK   26  A    between atoms: _62  and  _63
REMARK   27  A    between atoms: _62  and  _65
REMARK   28  A    between atoms: _65  and  _66
REMARK   29  A    between atoms: _66  and  _67
REMARK   30  A    between atoms: _67  and  _68
REMARK   31  A    between atoms: _77  and  _79
REMARK   32  A    between atoms: _79  and  _80
REMARK   33  A    between atoms: _79  and  _82
REMARK   34  A    between atoms: _82  and  _83
REMARK   35  A    between atoms: _86  and  _88
REMARK   36  A    between atoms: _88  and  _89
REMARK   37  A    between atoms: _92  and  _94
REMARK   38  A    between atoms: _94  and  _95
REMARK   39  A    between atoms: _94  and  _97
REMARK   40  A    between atoms: _97  and  _98
REMARK   41  A    between atoms: _104  and  _106
REMARK   42  A    between atoms: _106  and  _107
REMARK   43  A    between atoms: _106  and  _109
REMARK   44  A    between atoms: _109  and  _110
REMARK   45  A    between atoms: _115  and  _117
REMARK   46  A    between atoms: _117  and  _118
REMARK   47  A    between atoms: _117  and  _120
REMARK   48  A    between atoms: _120  and  _121
REMARK   49  A    between atoms: _124  and  _126
REMARK   50  A    between atoms: _126  and  _127
REMARK   51  A    between atoms: _126  and  _129
REMARK   52  A    between atoms: _129  and  _130
REMARK   53  A    between atoms: _135  and  _137
REMARK   54  A    between atoms: _137  and  _138
REMARK   55  A    between atoms: _137  and  _140
REMARK   56  A    between atoms: _140  and  _141
REMARK   57  A    between atoms: _147  and  _149
REMARK   58  A    between atoms: _149  and  _150
REMARK   59  A    between atoms: _149  and  _152
REMARK   60  A    between atoms: _152  and  _153
REMARK   61  A    between atoms: _159  and  _161
REMARK   62  A    between atoms: _161  and  _162
REMARK   63  A    between atoms: _161  and  _164
REMARK   64  A    between atoms: _164  and  _165
REMARK   65  A    between atoms: _165  and  _166
REMARK   66  A    between atoms: _166  and  _167
REMARK   67  A    between atoms: _176  and  _178
REMARK   68  A    between atoms: _178  and  _179
REMARK   69  A    between atoms: _178  and  _181
REMARK   70  A    between atoms: _181  and  _182
REMARK   71  A    between atoms: _187  and  _189
REMARK   72  A    between atoms: _189  and  _190
REMARK   73  A    between atoms: _189  and  _192
REMARK   74  A    between atoms: _192  and  _193
REMARK   75  A    between atoms: _196  and  _198
REMARK   76  A    between atoms: _198  and  _199
REMARK   77  A    between atoms: _198  and  _201
REMARK   78  A    between atoms: _201  and  _202
REMARK   79  A    between atoms: _205  and  _207
REMARK   80  A    between atoms: _207  and  _208
REMARK   81  A    between atoms: _207  and  _210
REMARK   82  A    between atoms: _210  and  _211
REMARK   83  A    between atoms: _216  and  _218
REMARK   84  A    between atoms: _218  and  _219
REMARK   85  A    between atoms: _218  and  _221
REMARK   86  A    between atoms: _221  and  _222
REMARK   87  A    between atoms: _227  and  _228
REMARK   88  A    between atoms: _230  and  _232
REMARK   89  A    between atoms: _232  and  _233
REMARK   90  A    between atoms: _232  and  _235
REMARK   91  A    between atoms: _235  and  _236
REMARK   92  A    between atoms: _239  and  _241
REMARK   93  A    between atoms: _241  and  _242
REMARK   94  A    between atoms: _241  and  _244
REMARK   95  A    between atoms: _244  and  _245
REMARK   96  A    between atoms: _250  and  _252
REMARK   97  A    between atoms: _252  and  _253
REMARK   98  A    between atoms: _252  and  _255
REMARK   99  A    between atoms: _255  and  _256
REMARK  100  A    between atoms: _261  and  _263
REMARK  101  A    between atoms: _263  and  _264
REMARK  102  A    between atoms: _263  and  _266
REMARK  103  A    between atoms: _266  and  _267
REMARK  104  A    between atoms: _270  and  _272
REMARK  105  A    between atoms: _272  and  _273
REMARK  106  A    between atoms: _272  and  _275
REMARK  107  A    between atoms: _278  and  _280
REMARK  108  A    between atoms: _280  and  _281
REMARK  109  A    between atoms: _280  and  _283
REMARK  110  A    between atoms: _283  and  _284
REMARK  111  A    between atoms: _287  and  _289
REMARK  112  A    between atoms: _289  and  _290
REMARK  113  A    between atoms: _289  and  _292
REMARK  114  A    between atoms: _292  and  _293
REMARK  115  A    between atoms: _293  and  _294
REMARK  116  A    between atoms: _297  and  _299
REMARK  117  A    between atoms: _299  and  _300
REMARK  118  A    between atoms: _303  and  _305
REMARK  119  A    between atoms: _305  and  _306
REMARK  120  A    between atoms: _305  and  _308
REMARK  121  A    between atoms: _308  and  _309
REMARK  122  A    between atoms: _312  and  _314
REMARK  123  A    between atoms: _314  and  _315
REMARK  124  A    between atoms: _314  and  _317
REMARK  125  A    between atoms: _317  and  _318
REMARK  126  A    between atoms: _318  and  _319
REMARK  127  A    between atoms: _322  and  _324
REMARK  128  A    between atoms: _324  and  _325
REMARK  129  A    between atoms: _324  and  _327
REMARK  130  A    between atoms: _327  and  _328
REMARK  131  A    between atoms: _333  and  _335
REMARK  132  A    between atoms: _335  and  _336
REMARK  133  A    between atoms: _338  and  _340
REMARK  134  A    between atoms: _340  and  _341
REMARK  135  A    between atoms: _340  and  _343
REMARK  136  A    between atoms: _346  and  _348
REMARK  137  A    between atoms: _348  and  _349
REMARK  138  A    between atoms: _352  and  _354
REMARK  139  A    between atoms: _354  and  _355
REMARK  140  A    between atoms: _354  and  _357
REMARK  141  A    between atoms: _357  and  _358
REMARK  142  A    between atoms: _363  and  _365
REMARK  143  A    between atoms: _365  and  _366
REMARK  144  A    between atoms: _365  and  _368
REMARK  145  A    between atoms: _368  and  _369
REMARK  146  A    between atoms: _369  and  _370
REMARK  147  A    between atoms: _370  and  _371
REMARK  148  A    between atoms: _371  and  _372
REMARK  149  A    between atoms: _376  and  _378
REMARK  150  A    between atoms: _378  and  _379
REMARK  151  A    between atoms: _378  and  _381
REMARK  152  A    between atoms: _381  and  _382
REMARK  153  A    between atoms: _385  and  _387
REMARK  154  A    between atoms: _387  and  _388
REMARK  155  A    between atoms: _387  and  _390
REMARK  156  A    between atoms: _390  and  _391
REMARK  157  A    between atoms: _396  and  _398
REMARK  158  A    between atoms: _398  and  _399
REMARK  159  A    between atoms: _401  and  _403
REMARK  160  A    between atoms: _403  and  _404
REMARK  161  A    between atoms: _403  and  _406
REMARK  162  A    between atoms: _406  and  _407
REMARK  163  A    between atoms: _407  and  _408
REMARK  164  A    between atoms: _408  and  _409
REMARK  165  A    between atoms: _409  and  _410
REMARK  166  A    between atoms: _414  and  _416
REMARK  167  A    between atoms: _416  and  _417
REMARK  168  A    between atoms: _416  and  _419
REMARK  169  A    between atoms: _419  and  _420
REMARK  170  A    between atoms: _420  and  _421
REMARK  171  A    between atoms: _421  and  _422
REMARK  172  A    between atoms: _431  and  _433
REMARK  173  A    between atoms: _433  and  _434
REMARK  174  A    between atoms: _433  and  _436
REMARK  175  A    between atoms: _436  and  _437
REMARK  176  A    between atoms: _442  and  _444
REMARK  177  A    between atoms: _444  and  _445
REMARK  178  A    between atoms: _444  and  _447
REMARK  179  A    between atoms: _447  and  _448
REMARK  180  A    between atoms: _453  and  _454
REMARK  181  A    between atoms: _456  and  _458
REMARK  182  A    between atoms: _458  and  _459
REMARK  183  A    between atoms: _458  and  _461
REMARK  184  A    between atoms: _461  and  _462
REMARK  185  A    between atoms: _462  and  _463
REMARK  186  A    between atoms: _463  and  _464
REMARK  187  A    between atoms: _464  and  _465
REMARK  188  A    between atoms: _469  and  _471
REMARK  189  A    between atoms: _471  and  _472
REMARK  190  A    between atoms: _471  and  _474
REMARK  191  A    between atoms: _474  and  _475
REMARK  192  A    between atoms: _477  and  _479
REMARK  193  A    between atoms: _479  and  _480
REMARK  194  A    between atoms: _479  and  _482
REMARK  195  A    between atoms: _482  and  _483
REMARK  196  A    between atoms: _486  and  _488
REMARK  197  A    between atoms: _488  and  _489
REMARK  198  A    between atoms: _488  and  _491
REMARK  199  A    between atoms: _491  and  _492
REMARK  200  A    between atoms: _492  and  _493
REMARK  201  A    between atoms: _496  and  _498
REMARK  202  A    between atoms: _498  and  _499
REMARK  203  A    between atoms: _502  and  _504
REMARK  204  A    between atoms: _504  and  _505
REMARK  205  A    between atoms: _504  and  _507
REMARK  206  A    between atoms: _507  and  _508
REMARK  207  A    between atoms: _510  and  _512
REMARK  208  A    between atoms: _512  and  _513
REMARK  209  A    between atoms: _515  and  _517
REMARK  210  A    between atoms: _517  and  _518
REMARK  211  A    between atoms: _517  and  _520
REMARK  212  A    between atoms: _520  and  _521
REMARK  213  A    between atoms: _524  and  _526
REMARK  214  A    between atoms: _526  and  _527
REMARK  215  A    between atoms: _529  and  _531
REMARK  216  A    between atoms: _531  and  _532
REMARK  217  A    between atoms: _531  and  _534
REMARK  218  A    between atoms: _534  and  _535
REMARK  219  A    between atoms: _540  and  _542
REMARK  220  A    between atoms: _542  and  _543
REMARK  221  A    between atoms: _542  and  _545
REMARK  222  A    between atoms: _545  and  _546
REMARK  223  A    between atoms: _546  and  _547
REMARK  224  A    between atoms: _554  and  _555
REMARK  225  A    between atoms: _555  and  _571
REMARK  226  A    between atoms: _556  and  _558
REMARK  227  A    between atoms: _558  and  _559
REMARK  228  A    between atoms: _559  and  _560
REMARK  229  A    between atoms: _564  and  _566
REMARK  230  A    between atoms: _566  and  _567
REMARK  231  A    between atoms: _566  and  _574
REMARK  232  A    between atoms: _567  and  _568
REMARK  233  A    between atoms: _568  and  _569
REMARK  234  A    between atoms: _569  and  _570
REMARK  235  A    between atoms: _570  and  _571
REMARK  236  A    between atoms: _576  and  _578
REMARK  237  A    between atoms: _578  and  _579
REMARK  238  A    between atoms: _578  and  _581
REMARK  239  A    between atoms: _581  and  _582
REMARK  240  A    between atoms: _585  and  _587
REMARK  241  A    between atoms: _587  and  _588
REMARK  242  A    between atoms: _590  and  _592
REMARK  243  A    between atoms: _592  and  _593
REMARK  244  A    between atoms: _596  and  _598
REMARK  245  A    between atoms: _598  and  _599
REMARK  246  A    between atoms: _598  and  _601
REMARK  247  A    between atoms: _601  and  _602
REMARK  248  A    between atoms: _607  and  _608
REMARK                            x       y       z     vdW  Elec       q    Type
REMARK                         _______ _______ _______ _____ _____    ______ ____
ROOT
ATOM      1  O   HOH     1      30.641  23.780  33.203  0.00  0.00    +0.000 OA
ENDROOT
TORSDOF 0
REMARK  Name = ../refined-set-2016/3g2i/3g2i_pocket.pdb
REMARK  248 active torsions:
REMARK  status: ('A' for Active; 'I' for Inactive)
REMARK    1  A    between atoms: _1  and  _3
REMARK    2  A    between atoms: _3  and  _4
REMARK    3  A    between atoms: _3  and  _6
REMARK    4  A    between atoms: _6  and  _7
REMARK    5  A    between atoms: _12  and  _13
REMARK    6  A    between atoms: _15  and  _17
REMARK    7  A    between atoms: _17  and  _18
REMARK    8  A    between atoms: _17  and  _20
REMARK    9  A    between atoms: _20  and  _21
REMARK   10  A    between atoms: _21  and  _22
REMARK   11  A    between atoms: _25  and  _27
REMARK   12  A    between atoms: _27  and  _28
REMARK   13  A    between atoms: _27  and  _30
REMARK   14  A    between atoms: _30  and  _31
REMARK   15  A    between atoms: _36  and  _38
REMARK   16  A    between atoms: _38  and  _39
REMARK   17  A    between atoms: _41  and  _43
REMARK   18  A    between atoms: _43  and  _44
REMARK   19  A    between atoms: _46  and  _48
REMARK   20  A    between atoms: _48  and  _49
REMARK   21  A    between atoms: _48  and  _51
REMARK   22  A    between atoms: _51  and  _52
REMARK   23  A    between atoms: _55  and  _57
REMARK   24  A    between atoms: _57  and  _58
REMARK   25  A    between atoms: _60  and  _62
REMARK   26  A    between atoms: _62  and  _63
REMARK   27  A    between atoms: _62  and  _65
REMARK   28  A    between atoms: _65  and  _66
REMARK   29  A    between atoms: _66  and  _67
REMARK   30  A    between atoms: _67  and  _68
REMARK   31  A    between atoms: _77  and  _79
REMARK   32  A    between atoms: _79  and  _80
REMARK   33  A    between atoms: _79  and  _82
REMARK   34  A    between atoms: _82  and  _83
REMARK   35  A    between atoms: _86  and  _88
REMARK   36  A    between atoms: _88  and  _89
REMARK   37  A    between atoms: _92  and  _94
REMARK   38  A    between atoms: _94  and  _95
REMARK   39  A    between atoms: _94  and  _97
REMARK   40  A    between atoms: _97  and  _98
REMARK   41  A    between atoms: _104  and  _106
REMARK   42  A    between atoms: _106  and  _107
REMARK   43  A    between atoms: _106  and  _109
REMARK   44  A    between atoms: _109  and  _110
REMARK   45  A    between atoms: _115  and  _117
REMARK   46  A    between atoms: _117  and  _118
REMARK   47  A    between atoms: _117  and  _120
REMARK   48  A    between atoms: _120  and  _121
REMARK   49  A    between atoms: _124  and  _126
REMARK   50  A    between atoms: _126  and  _127
REMARK   51  A    between atoms: _126  and  _129
REMARK   52  A    between atoms: _129  and  _130
REMARK   53  A    between atoms: _135  and  _137
REMARK   54  A    between atoms: _137  and  _138
REMARK   55  A    between atoms: _137  and  _140
REMARK   56  A    between atoms: _140  and  _141
REMARK   57  A    between atoms: _147  and  _149
REMARK   58  A    between atoms: _149  and  _150
REMARK   59  A    between atoms: _149  and  _152
REMARK   60  A    between atoms: _152  and  _153
REMARK   61  A    between atoms: _159  and  _161
REMARK   62  A    between atoms: _161  and  _162
REMARK   63  A    between atoms: _161  and  _164
REMARK   64  A    between atoms: _164  and  _165
REMARK   65  A    between atoms: _165  and  _166
REMARK   66  A    between atoms: _166  and  _167
REMARK   67  A    between atoms: _176  and  _178
REMARK   68  A    between atoms: _178  and  _179
REMARK   69  A    between atoms: _178  and  _181
REMARK   70  A    between atoms: _181  and  _182
REMARK   71  A    between atoms: _187  and  _189
REMARK   72  A    between atoms: _189  and  _190
REMARK   73  A    between atoms: _189  and  _192
REMARK   74  A    between atoms: _192  and  _193
REMARK   75  A    between atoms: _196  and  _198
REMARK   76  A    between atoms: _198  and  _199
REMARK   77  A    between atoms: _198  and  _201
REMARK   78  A    between atoms: _201  and  _202
REMARK   79  A    between atoms: _205  and  _207
REMARK   80  A    between atoms: _207  and  _208
REMARK   81  A    between atoms: _207  and  _210
REMARK   82  A    between atoms: _210  and  _211
REMARK   83  A    between atoms: _216  and  _218
REMARK   84  A    between atoms: _218  and  _219
REMARK   85  A    between atoms: _218  and  _221
REMARK   86  A    between atoms: _221  and  _222
REMARK   87  A    between atoms: _227  and  _228
REMARK   88  A    between atoms: _230  and  _232
REMARK   89  A    between atoms: _232  and  _233
REMARK   90  A    between atoms: _232  and  _235
REMARK   91  A    between atoms: _235  and  _236
REMARK   92  A    between atoms: _239  and  _241
REMARK   93  A    between atoms: _241  and  _242
REMARK   94  A    between atoms: _241  and  _244
REMARK   95  A    between atoms: _244  and  _245
REMARK   96  A    between atoms: _250  and  _252
REMARK   97  A    between atoms: _252  and  _253
REMARK   98  A    between atoms: _252  and  _255
REMARK   99  A    between atoms: _255  and  _256
REMARK  100  A    between atoms: _261  and  _263
REMARK  101  A    between atoms: _263  and  _264
REMARK  102  A    between atoms: _263  and  _266
REMARK  103  A    between atoms: _266  and  _267
REMARK  104  A    between atoms: _270  and  _272
REMARK  105  A    between atoms: _272  and  _273
REMARK  106  A    between atoms: _272  and  _275
REMARK  107  A    between atoms: _278  and  _280
REMARK  108  A    between atoms: _280  and  _281
REMARK  109  A    between atoms: _280  and  _283
REMARK  110  A    between atoms: _283  and  _284
REMARK  111  A    between atoms: _287  and  _289
REMARK  112  A    between atoms: _289  and  _290
REMARK  113  A    between atoms: _289  and  _292
REMARK  114  A    between atoms: _292  and  _293
REMARK  115  A    between atoms: _293  and  _294
REMARK  116  A    between atoms: _297  and  _299
REMARK  117  A    between atoms: _299  and  _300
REMARK  118  A    between atoms: _303  and  _305
REMARK  119  A    between atoms: _305  and  _306
REMARK  120  A    between atoms: _305  and  _308
REMARK  121  A    between atoms: _308  and  _309
REMARK  122  A    between atoms: _312  and  _314
REMARK  123  A    between atoms: _314  and  _315
REMARK  124  A    between atoms: _314  and  _317
REMARK  125  A    between atoms: _317  and  _318
REMARK  126  A    between atoms: _318  and  _319
REMARK  127  A    between atoms: _322  and  _324
REMARK  128  A    between atoms: _324  and  _325
REMARK  129  A    between atoms: _324  and  _327
REMARK  130  A    between atoms: _327  and  _328
REMARK  131  A    between atoms: _333  and  _335
REMARK  132  A    between atoms: _335  and  _336
REMARK  133  A    between atoms: _338  and  _340
REMARK  134  A    between atoms: _340  and  _341
REMARK  135  A    between atoms: _340  and  _343
REMARK  136  A    between atoms: _346  and  _348
REMARK  137  A    between atoms: _348  and  _349
REMARK  138  A    between atoms: _352  and  _354
REMARK  139  A    between atoms: _354  and  _355
REMARK  140  A    between atoms: _354  and  _357
REMARK  141  A    between atoms: _357  and  _358
REMARK  142  A    between atoms: _363  and  _365
REMARK  143  A    between atoms: _365  and  _366
REMARK  144  A    between atoms: _365  and  _368
REMARK  145  A    between atoms: _368  and  _369
REMARK  146  A    between atoms: _369  and  _370
REMARK  147  A    between atoms: _370  and  _371
REMARK  148  A    between atoms: _371  and  _372
REMARK  149  A    between atoms: _376  and  _378
REMARK  150  A    between atoms: _378  and  _379
REMARK  151  A    between atoms: _378  and  _381
REMARK  152  A    between atoms: _381  and  _382
REMARK  153  A    between atoms: _385  and  _387
REMARK  154  A    between atoms: _387  and  _388
REMARK  155  A    between atoms: _387  and  _390
REMARK  156  A    between atoms: _390  and  _391
REMARK  157  A    between atoms: _396  and  _398
REMARK  158  A    between atoms: _398  and  _399
REMARK  159  A    between atoms: _401  and  _403
REMARK  160  A    between atoms: _403  and  _404
REMARK  161  A    between atoms: _403  and  _406
REMARK  162  A    between atoms: _406  and  _407
REMARK  163  A    between atoms: _407  and  _408
REMARK  164  A    between atoms: _408  and  _409
REMARK  165  A    between atoms: _409  and  _410
REMARK  166  A    between atoms: _414  and  _416
REMARK  167  A    between atoms: _416  and  _417
REMARK  168  A    between atoms: _416  and  _419
REMARK  169  A    between atoms: _419  and  _420
REMARK  170  A    between atoms: _420  and  _421
REMARK  171  A    between atoms: _421  and  _422
REMARK  172  A    between atoms: _431  and  _433
REMARK  173  A    between atoms: _433  and  _434
REMARK  174  A    between atoms: _433  and  _436
REMARK  175  A    between atoms: _436  and  _437
REMARK  176  A    between atoms: _442  and  _444
REMARK  177  A    between atoms: _444  and  _445
REMARK  178  A    between atoms: _444  and  _447
REMARK  179  A    between atoms: _447  and  _448
REMARK  180  A    between atoms: _453  and  _454
REMARK  181  A    between atoms: _456  and  _458
REMARK  182  A    between atoms: _458  and  _459
REMARK  183  A    between atoms: _458  and  _461
REMARK  184  A    between atoms: _461  and  _462
REMARK  185  A    between atoms: _462  and  _463
REMARK  186  A    between atoms: _463  and  _464
REMARK  187  A    between atoms: _464  and  _465
REMARK  188  A    between atoms: _469  and  _471
REMARK  189  A    between atoms: _471  and  _472
REMARK  190  A    between atoms: _471  and  _474
REMARK  191  A    between atoms: _474  and  _475
REMARK  192  A    between atoms: _477  and  _479
REMARK  193  A    between atoms: _479  and  _480
REMARK  194  A    between atoms: _479  and  _482
REMARK  195  A    between atoms: _482  and  _483
REMARK  196  A    between atoms: _486  and  _488
REMARK  197  A    between atoms: _488  and  _489
REMARK  198  A    between atoms: _488  and  _491
REMARK  199  A    between atoms: _491  and  _492
REMARK  200  A    between atoms: _492  and  _493
REMARK  201  A    between atoms: _496  and  _498
REMARK  202  A    between atoms: _498  and  _499
REMARK  203  A    between atoms: _502  and  _504
REMARK  204  A    between atoms: _504  and  _505
REMARK  205  A    between atoms: _504  and  _507
REMARK  206  A    between atoms: _507  and  _508
REMARK  207  A    between atoms: _510  and  _512
REMARK  208  A    between atoms: _512  and  _513
REMARK  209  A    between atoms: _515  and  _517
REMARK  210  A    between atoms: _517  and  _518
REMARK  211  A    between atoms: _517  and  _520
REMARK  212  A    between atoms: _520  and  _521
REMARK  213  A    between atoms: _524  and  _526
REMARK  214  A    between atoms: _526  and  _527
REMARK  215  A    between atoms: _529  and  _531
REMARK  216  A    between atoms: _531  and  _532
REMARK  217  A    between atoms: _531  and  _534
REMARK  218  A    between atoms: _534  and  _535
REMARK  219  A    between atoms: _540  and  _542
REMARK  220  A    between atoms: _542  and  _543
REMARK  221  A    between atoms: _542  and  _545
REMARK  222  A    between atoms: _545  and  _546
REMARK  223  A    between atoms: _546  and  _547
REMARK  224  A    between atoms: _554  and  _555
REMARK  225  A    between atoms: _555  and  _571
REMARK  226  A    between atoms: _556  and  _558
REMARK  227  A    between atoms: _558  and  _559
REMARK  228  A    between atoms: _559  and  _560
REMARK  229  A    between atoms: _564  and  _566
REMARK  230  A    between atoms: _566  and  _567
REMARK  231  A    between atoms: _566  and  _574
REMARK  232  A    between atoms: _567  and  _568
REMARK  233  A    between atoms: _568  and  _569
REMARK  234  A    between atoms: _569  and  _570
REMARK  235  A    between atoms: _570  and  _571
REMARK  236  A    between atoms: _576  and  _578
REMARK  237  A    between atoms: _578  and  _579
REMARK  238  A    between atoms: _578  and  _581
REMARK  239  A    between atoms: _581  and  _582
REMARK  240  A    between atoms: _585  and  _587
REMARK  241  A    between atoms: _587  and  _588
REMARK  242  A    between atoms: _590  and  _592
REMARK  243  A    between atoms: _592  and  _593
REMARK  244  A    between atoms: _596  and  _598
REMARK  245  A    between atoms: _598  and  _599
REMARK  246  A    between atoms: _598  and  _601
REMARK  247  A    between atoms: _601  and  _602
REMARK  248  A    between atoms: _607  and  _608
REMARK                            x       y       z     vdW  Elec       q    Type
REMARK                         _______ _______ _______ _____ _____    ______ ____
ROOT
ATOM      1  O   HOH     1      38.290  23.680  22.190  0.00  0.00    +0.000 OA
ENDROOT
TORSDOF 0
REMARK  Name = ../refined-set-2016/3g2i/3g2i_pocket.pdb
REMARK  248 active torsions:
REMARK  status: ('A' for Active; 'I' for Inactive)
REMARK    1  A    between atoms: _1  and  _3
REMARK    2  A    between atoms: _3  and  _4
REMARK    3  A    between atoms: _3  and  _6
REMARK    4  A    between atoms: _6  and  _7
REMARK    5  A    between atoms: _12  and  _13
REMARK    6  A    between atoms: _15  and  _17
REMARK    7  A    between atoms: _17  and  _18
REMARK    8  A    between atoms: _17  and  _20
REMARK    9  A    between atoms: _20  and  _21
REMARK   10  A    between atoms: _21  and  _22
REMARK   11  A    between atoms: _25  and  _27
REMARK   12  A    between atoms: _27  and  _28
REMARK   13  A    between atoms: _27  and  _30
REMARK   14  A    between atoms: _30  and  _31
REMARK   15  A    between atoms: _36  and  _38
REMARK   16  A    between atoms: _38  and  _39
REMARK   17  A    between atoms: _41  and  _43
REMARK   18  A    between atoms: _43  and  _44
REMARK   19  A    between atoms: _46  and  _48
REMARK   20  A    between atoms: _48  and  _49
REMARK   21  A    between atoms: _48  and  _51
REMARK   22  A    between atoms: _51  and  _52
REMARK   23  A    between atoms: _55  and  _57
REMARK   24  A    between atoms: _57  and  _58
REMARK   25  A    between atoms: _60  and  _62
REMARK   26  A    between atoms: _62  and  _63
REMARK   27  A    between atoms: _62  and  _65
REMARK   28  A    between atoms: _65  and  _66
REMARK   29  A    between atoms: _66  and  _67
REMARK   30  A    between atoms: _67  and  _68
REMARK   31  A    between atoms: _77  and  _79
REMARK   32  A    between atoms: _79  and  _80
REMARK   33  A    between atoms: _79  and  _82
REMARK   34  A    between atoms: _82  and  _83
REMARK   35  A    between atoms: _86  and  _88
REMARK   36  A    between atoms: _88  and  _89
REMARK   37  A    between atoms: _92  and  _94
REMARK   38  A    between atoms: _94  and  _95
REMARK   39  A    between atoms: _94  and  _97
REMARK   40  A    between atoms: _97  and  _98
REMARK   41  A    between atoms: _104  and  _106
REMARK   42  A    between atoms: _106  and  _107
REMARK   43  A    between atoms: _106  and  _109
REMARK   44  A    between atoms: _109  and  _110
REMARK   45  A    between atoms: _115  and  _117
REMARK   46  A    between atoms: _117  and  _118
REMARK   47  A    between atoms: _117  and  _120
REMARK   48  A    between atoms: _120  and  _121
REMARK   49  A    between atoms: _124  and  _126
REMARK   50  A    between atoms: _126  and  _127
REMARK   51  A    between atoms: _126  and  _129
REMARK   52  A    between atoms: _129  and  _130
REMARK   53  A    between atoms: _135  and  _137
REMARK   54  A    between atoms: _137  and  _138
REMARK   55  A    between atoms: _137  and  _140
REMARK   56  A    between atoms: _140  and  _141
REMARK   57  A    between atoms: _147  and  _149
REMARK   58  A    between atoms: _149  and  _150
REMARK   59  A    between atoms: _149  and  _152
REMARK   60  A    between atoms: _152  and  _153
REMARK   61  A    between atoms: _159  and  _161
REMARK   62  A    between atoms: _161  and  _162
REMARK   63  A    between atoms: _161  and  _164
REMARK   64  A    between atoms: _164  and  _165
REMARK   65  A    between atoms: _165  and  _166
REMARK   66  A    between atoms: _166  and  _167
REMARK   67  A    between atoms: _176  and  _178
REMARK   68  A    between atoms: _178  and  _179
REMARK   69  A    between atoms: _178  and  _181
REMARK   70  A    between atoms: _181  and  _182
REMARK   71  A    between atoms: _187  and  _189
REMARK   72  A    between atoms: _189  and  _190
REMARK   73  A    between atoms: _189  and  _192
REMARK   74  A    between atoms: _192  and  _193
REMARK   75  A    between atoms: _196  and  _198
REMARK   76  A    between atoms: _198  and  _199
REMARK   77  A    between atoms: _198  and  _201
REMARK   78  A    between atoms: _201  and  _202
REMARK   79  A    between atoms: _205  and  _207
REMARK   80  A    between atoms: _207  and  _208
REMARK   81  A    between atoms: _207  and  _210
REMARK   82  A    between atoms: _210  and  _211
REMARK   83  A    between atoms: _216  and  _218
REMARK   84  A    between atoms: _218  and  _219
REMARK   85  A    between atoms: _218  and  _221
REMARK   86  A    between atoms: _221  and  _222
REMARK   87  A    between atoms: _227  and  _228
REMARK   88  A    between atoms: _230  and  _232
REMARK   89  A    between atoms: _232  and  _233
REMARK   90  A    between atoms: _232  and  _235
REMARK   91  A    between atoms: _235  and  _236
REMARK   92  A    between atoms: _239  and  _241
REMARK   93  A    between atoms: _241  and  _242
REMARK   94  A    between atoms: _241  and  _244
REMARK   95  A    between atoms: _244  and  _245
REMARK   96  A    between atoms: _250  and  _252
REMARK   97  A    between atoms: _252  and  _253
REMARK   98  A    between atoms: _252  and  _255
REMARK   99  A    between atoms: _255  and  _256
REMARK  100  A    between atoms: _261  and  _263
REMARK  101  A    between atoms: _263  and  _264
REMARK  102  A    between atoms: _263  and  _266
REMARK  103  A    between atoms: _266  and  _267
REMARK  104  A    between atoms: _270  and  _272
REMARK  105  A    between atoms: _272  and  _273
REMARK  106  A    between atoms: _272  and  _275
REMARK  107  A    between atoms: _278  and  _280
REMARK  108  A    between atoms: _280  and  _281
REMARK  109  A    between atoms: _280  and  _283
REMARK  110  A    between atoms: _283  and  _284
REMARK  111  A    between atoms: _287  and  _289
REMARK  112  A    between atoms: _289  and  _290
REMARK  113  A    between atoms: _289  and  _292
REMARK  114  A    between atoms: _292  and  _293
REMARK  115  A    between atoms: _293  and  _294
REMARK  116  A    between atoms: _297  and  _299
REMARK  117  A    between atoms: _299  and  _300
REMARK  118  A    between atoms: _303  and  _305
REMARK  119  A    between atoms: _305  and  _306
REMARK  120  A    between atoms: _305  and  _308
REMARK  121  A    between atoms: _308  and  _309
REMARK  122  A    between atoms: _312  and  _314
REMARK  123  A    between atoms: _314  and  _315
REMARK  124  A    between atoms: _314  and  _317
REMARK  125  A    between atoms: _317  and  _318
REMARK  126  A    between atoms: _318  and  _319
REMARK  127  A    between atoms: _322  and  _324
REMARK  128  A    between atoms: _324  and  _325
REMARK  129  A    between atoms: _324  and  _327
REMARK  130  A    between atoms: _327  and  _328
REMARK  131  A    between atoms: _333  and  _335
REMARK  132  A    between atoms: _335  and  _336
REMARK  133  A    between atoms: _338  and  _340
REMARK  134  A    between atoms: _340  and  _341
REMARK  135  A    between atoms: _340  and  _343
REMARK  136  A    between atoms: _346  and  _348
REMARK  137  A    between atoms: _348  and  _349
REMARK  138  A    between atoms: _352  and  _354
REMARK  139  A    between atoms: _354  and  _355
REMARK  140  A    between atoms: _354  and  _357
REMARK  141  A    between atoms: _357  and  _358
REMARK  142  A    between atoms: _363  and  _365
REMARK  143  A    between atoms: _365  and  _366
REMARK  144  A    between atoms: _365  and  _368
REMARK  145  A    between atoms: _368  and  _369
REMARK  146  A    between atoms: _369  and  _370
REMARK  147  A    between atoms: _370  and  _371
REMARK  148  A    between atoms: _371  and  _372
REMARK  149  A    between atoms: _376  and  _378
REMARK  150  A    between atoms: _378  and  _379
REMARK  151  A    between atoms: _378  and  _381
REMARK  152  A    between atoms: _381  and  _382
REMARK  153  A    between atoms: _385  and  _387
REMARK  154  A    between atoms: _387  and  _388
REMARK  155  A    between atoms: _387  and  _390
REMARK  156  A    between atoms: _390  and  _391
REMARK  157  A    between atoms: _396  and  _398
REMARK  158  A    between atoms: _398  and  _399
REMARK  159  A    between atoms: _401  and  _403
REMARK  160  A    between atoms: _403  and  _404
REMARK  161  A    between atoms: _403  and  _406
REMARK  162  A    between atoms: _406  and  _407
REMARK  163  A    between atoms: _407  and  _408
REMARK  164  A    between atoms: _408  and  _409
REMARK  165  A    between atoms: _409  and  _410
REMARK  166  A    between atoms: _414  and  _416
REMARK  167  A    between atoms: _416  and  _417
REMARK  168  A    between atoms: _416  and  _419
REMARK  169  A    between atoms: _419  and  _420
REMARK  170  A    between atoms: _420  and  _421
REMARK  171  A    between atoms: _421  and  _422
REMARK  172  A    between atoms: _431  and  _433
REMARK  173  A    between atoms: _433  and  _434
REMARK  174  A    between atoms: _433  and  _436
REMARK  175  A    between atoms: _436  and  _437
REMARK  176  A    between atoms: _442  and  _444
REMARK  177  A    between atoms: _444  and  _445
REMARK  178  A    between atoms: _444  and  _447
REMARK  179  A    between atoms: _447  and  _448
REMARK  180  A    between atoms: _453  and  _454
REMARK  181  A    between atoms: _456  and  _458
REMARK  182  A    between atoms: _458  and  _459
REMARK  183  A    between atoms: _458  and  _461
REMARK  184  A    between atoms: _461  and  _462
REMARK  185  A    between atoms: _462  and  _463
REMARK  186  A    between atoms: _463  and  _464
REMARK  187  A    between atoms: _464  and  _465
REMARK  188  A    between atoms: _469  and  _471
REMARK  189  A    between atoms: _471  and  _472
REMARK  190  A    between atoms: _471  and  _474
REMARK  191  A    between atoms: _474  and  _475
REMARK  192  A    between atoms: _477  and  _479
REMARK  193  A    between atoms: _479  and  _480
REMARK  194  A    between atoms: _479  and  _482
REMARK  195  A    between atoms: _482  and  _483
REMARK  196  A    between atoms: _486  and  _488
REMARK  197  A    between atoms: _488  and  _489
REMARK  198  A    between atoms: _488  and  _491
REMARK  199  A    between atoms: _491  and  _492
REMARK  200  A    between atoms: _492  and  _493
REMARK  201  A    between atoms: _496  and  _498
REMARK  202  A    between atoms: _498  and  _499
REMARK  203  A    between atoms: _502  and  _504
REMARK  204  A    between atoms: _504  and  _505
REMARK  205  A    between atoms: _504  and  _507
REMARK  206  A    between atoms: _507  and  _508
REMARK  207  A    between atoms: _510  and  _512
REMARK  208  A    between atoms: _512  and  _513
REMARK  209  A    between atoms: _515  and  _517
REMARK  210  A    between atoms: _517  and  _518
REMARK  211  A    between atoms: _517  and  _520
REMARK  212  A    between atoms: _520  and  _521
REMARK  213  A    between atoms: _524  and  _526
REMARK  214  A    between atoms: _526  and  _527
REMARK  215  A    between atoms: _529  and  _531
REMARK  216  A    between atoms: _531  and  _532
REMARK  217  A    between atoms: _531  and  _534
REMARK  218  A    between atoms: _534  and  _535
REMARK  219  A    between atoms: _540  and  _542
REMARK  220  A    between atoms: _542  and  _543
REMARK  221  A    between atoms: _542  and  _545
REMARK  222  A    between atoms: _545  and  _546
REMARK  223  A    between atoms: _546  and  _547
REMARK  224  A    between atoms: _554  and  _555
REMARK  225  A    between atoms: _555  and  _571
REMARK  226  A    between atoms: _556  and  _558
REMARK  227  A    between atoms: _558  and  _559
REMARK  228  A    between atoms: _559  and  _560
REMARK  229  A    between atoms: _564  and  _566
REMARK  230  A    between atoms: _566  and  _567
REMARK  231  A    between atoms: _566  and  _574
REMARK  232  A    between atoms: _567  and  _568
REMARK  233  A    between atoms: _568  and  _569
REMARK  234  A    between atoms: _569  and  _570
REMARK  235  A    between atoms: _570  and  _571
REMARK  236  A    between atoms: _576  and  _578
REMARK  237  A    between atoms: _578  and  _579
REMARK  238  A    between atoms: _578  and  _581
REMARK  239  A    between atoms: _581  and  _582
REMARK  240  A    between atoms: _585  and  _587
REMARK  241  A    between atoms: _587  and  _588
REMARK  242  A    between atoms: _590  and  _592
REMARK  243  A    between atoms: _592  and  _593
REMARK  244  A    between atoms: _596  and  _598
REMARK  245  A    between atoms: _598  and  _599
REMARK  246  A    between atoms: _598  and  _601
REMARK  247  A    between atoms: _601  and  _602
REMARK  248  A    between atoms: _607  and  _608
REMARK                            x       y       z     vdW  Elec       q    Type
REMARK                         _______ _______ _______ _____ _____    ______ ____
ROOT
ATOM      1  O   HOH     1      40.671  26.089  37.015  0.00  0.00    +0.000 OA
ENDROOT
TORSDOF 0
REMARK  Name = ../refined-set-2016/3g2i/3g2i_pocket.pdb
REMARK  248 active torsions:
REMARK  status: ('A' for Active; 'I' for Inactive)
REMARK    1  A    between atoms: _1  and  _3
REMARK    2  A    between atoms: _3  and  _4
REMARK    3  A    between atoms: _3  and  _6
REMARK    4  A    between atoms: _6  and  _7
REMARK    5  A    between atoms: _12  and  _13
REMARK    6  A    between atoms: _15  and  _17
REMARK    7  A    between atoms: _17  and  _18
REMARK    8  A    between atoms: _17  and  _20
REMARK    9  A    between atoms: _20  and  _21
REMARK   10  A    between atoms: _21  and  _22
REMARK   11  A    between atoms: _25  and  _27
REMARK   12  A    between atoms: _27  and  _28
REMARK   13  A    between atoms: _27  and  _30
REMARK   14  A    between atoms: _30  and  _31
REMARK   15  A    between atoms: _36  and  _38
REMARK   16  A    between atoms: _38  and  _39
REMARK   17  A    between atoms: _41  and  _43
REMARK   18  A    between atoms: _43  and  _44
REMARK   19  A    between atoms: _46  and  _48
REMARK   20  A    between atoms: _48  and  _49
REMARK   21  A    between atoms: _48  and  _51
REMARK   22  A    between atoms: _51  and  _52
REMARK   23  A    between atoms: _55  and  _57
REMARK   24  A    between atoms: _57  and  _58
REMARK   25  A    between atoms: _60  and  _62
REMARK   26  A    between atoms: _62  and  _63
REMARK   27  A    between atoms: _62  and  _65
REMARK   28  A    between atoms: _65  and  _66
REMARK   29  A    between atoms: _66  and  _67
REMARK   30  A    between atoms: _67  and  _68
REMARK   31  A    between atoms: _77  and  _79
REMARK   32  A    between atoms: _79  and  _80
REMARK   33  A    between atoms: _79  and  _82
REMARK   34  A    between atoms: _82  and  _83
REMARK   35  A    between atoms: _86  and  _88
REMARK   36  A    between atoms: _88  and  _89
REMARK   37  A    between atoms: _92  and  _94
REMARK   38  A    between atoms: _94  and  _95
REMARK   39  A    between atoms: _94  and  _97
REMARK   40  A    between atoms: _97  and  _98
REMARK   41  A    between atoms: _104  and  _106
REMARK   42  A    between atoms: _106  and  _107
REMARK   43  A    between atoms: _106  and  _109
REMARK   44  A    between atoms: _109  and  _110
REMARK   45  A    between atoms: _115  and  _117
REMARK   46  A    between atoms: _117  and  _118
REMARK   47  A    between atoms: _117  and  _120
REMARK   48  A    between atoms: _120  and  _121
REMARK   49  A    between atoms: _124  and  _126
REMARK   50  A    between atoms: _126  and  _127
REMARK   51  A    between atoms: _126  and  _129
REMARK   52  A    between atoms: _129  and  _130
REMARK   53  A    between atoms: _135  and  _137
REMARK   54  A    between atoms: _137  and  _138
REMARK   55  A    between atoms: _137  and  _140
REMARK   56  A    between atoms: _140  and  _141
REMARK   57  A    between atoms: _147  and  _149
REMARK   58  A    between atoms: _149  and  _150
REMARK   59  A    between atoms: _149  and  _152
REMARK   60  A    between atoms: _152  and  _153
REMARK   61  A    between atoms: _159  and  _161
REMARK   62  A    between atoms: _161  and  _162
REMARK   63  A    between atoms: _161  and  _164
REMARK   64  A    between atoms: _164  and  _165
REMARK   65  A    between atoms: _165  and  _166
REMARK   66  A    between atoms: _166  and  _167
REMARK   67  A    between atoms: _176  and  _178
REMARK   68  A    between atoms: _178  and  _179
REMARK   69  A    between atoms: _178  and  _181
REMARK   70  A    between atoms: _181  and  _182
REMARK   71  A    between atoms: _187  and  _189
REMARK   72  A    between atoms: _189  and  _190
REMARK   73  A    between atoms: _189  and  _192
REMARK   74  A    between atoms: _192  and  _193
REMARK   75  A    between atoms: _196  and  _198
REMARK   76  A    between atoms: _198  and  _199
REMARK   77  A    between atoms: _198  and  _201
REMARK   78  A    between atoms: _201  and  _202
REMARK   79  A    between atoms: _205  and  _207
REMARK   80  A    between atoms: _207  and  _208
REMARK   81  A    between atoms: _207  and  _210
REMARK   82  A    between atoms: _210  and  _211
REMARK   83  A    between atoms: _216  and  _218
REMARK   84  A    between atoms: _218  and  _219
REMARK   85  A    between atoms: _218  and  _221
REMARK   86  A    between atoms: _221  and  _222
REMARK   87  A    between atoms: _227  and  _228
REMARK   88  A    between atoms: _230  and  _232
REMARK   89  A    between atoms: _232  and  _233
REMARK   90  A    between atoms: _232  and  _235
REMARK   91  A    between atoms: _235  and  _236
REMARK   92  A    between atoms: _239  and  _241
REMARK   93  A    between atoms: _241  and  _242
REMARK   94  A    between atoms: _241  and  _244
REMARK   95  A    between atoms: _244  and  _245
REMARK   96  A    between atoms: _250  and  _252
REMARK   97  A    between atoms: _252  and  _253
REMARK   98  A    between atoms: _252  and  _255
REMARK   99  A    between atoms: _255  and  _256
REMARK  100  A    between atoms: _261  and  _263
REMARK  101  A    between atoms: _263  and  _264
REMARK  102  A    between atoms: _263  and  _266
REMARK  103  A    between atoms: _266  and  _267
REMARK  104  A    between atoms: _270  and  _272
REMARK  105  A    between atoms: _272  and  _273
REMARK  106  A    between atoms: _272  and  _275
REMARK  107  A    between atoms: _278  and  _280
REMARK  108  A    between atoms: _280  and  _281
REMARK  109  A    between atoms: _280  and  _283
REMARK  110  A    between atoms: _283  and  _284
REMARK  111  A    between atoms: _287  and  _289
REMARK  112  A    between atoms: _289  and  _290
REMARK  113  A    between atoms: _289  and  _292
REMARK  114  A    between atoms: _292  and  _293
REMARK  115  A    between atoms: _293  and  _294
REMARK  116  A    between atoms: _297  and  _299
REMARK  117  A    between atoms: _299  and  _300
REMARK  118  A    between atoms: _303  and  _305
REMARK  119  A    between atoms: _305  and  _306
REMARK  120  A    between atoms: _305  and  _308
REMARK  121  A    between atoms: _308  and  _309
REMARK  122  A    between atoms: _312  and  _314
REMARK  123  A    between atoms: _314  and  _315
REMARK  124  A    between atoms: _314  and  _317
REMARK  125  A    between atoms: _317  and  _318
REMARK  126  A    between atoms: _318  and  _319
REMARK  127  A    between atoms: _322  and  _324
REMARK  128  A    between atoms: _324  and  _325
REMARK  129  A    between atoms: _324  and  _327
REMARK  130  A    between atoms: _327  and  _328
REMARK  131  A    between atoms: _333  and  _335
REMARK  132  A    between atoms: _335  and  _336
REMARK  133  A    between atoms: _338  and  _340
REMARK  134  A    between atoms: _340  and  _341
REMARK  135  A    between atoms: _340  and  _343
REMARK  136  A    between atoms: _346  and  _348
REMARK  137  A    between atoms: _348  and  _349
REMARK  138  A    between atoms: _352  and  _354
REMARK  139  A    between atoms: _354  and  _355
REMARK  140  A    between atoms: _354  and  _357
REMARK  141  A    between atoms: _357  and  _358
REMARK  142  A    between atoms: _363  and  _365
REMARK  143  A    between atoms: _365  and  _366
REMARK  144  A    between atoms: _365  and  _368
REMARK  145  A    between atoms: _368  and  _369
REMARK  146  A    between atoms: _369  and  _370
REMARK  147  A    between atoms: _370  and  _371
REMARK  148  A    between atoms: _371  and  _372
REMARK  149  A    between atoms: _376  and  _378
REMARK  150  A    between atoms: _378  and  _379
REMARK  151  A    between atoms: _378  and  _381
REMARK  152  A    between atoms: _381  and  _382
REMARK  153  A    between atoms: _385  and  _387
REMARK  154  A    between atoms: _387  and  _388
REMARK  155  A    between atoms: _387  and  _390
REMARK  156  A    between atoms: _390  and  _391
REMARK  157  A    between atoms: _396  and  _398
REMARK  158  A    between atoms: _398  and  _399
REMARK  159  A    between atoms: _401  and  _403
REMARK  160  A    between atoms: _403  and  _404
REMARK  161  A    between atoms: _403  and  _406
REMARK  162  A    between atoms: _406  and  _407
REMARK  163  A    between atoms: _407  and  _408
REMARK  164  A    between atoms: _408  and  _409
REMARK  165  A    between atoms: _409  and  _410
REMARK  166  A    between atoms: _414  and  _416
REMARK  167  A    between atoms: _416  and  _417
REMARK  168  A    between atoms: _416  and  _419
REMARK  169  A    between atoms: _419  and  _420
REMARK  170  A    between atoms: _420  and  _421
REMARK  171  A    between atoms: _421  and  _422
REMARK  172  A    between atoms: _431  and  _433
REMARK  173  A    between atoms: _433  and  _434
REMARK  174  A    between atoms: _433  and  _436
REMARK  175  A    between atoms: _436  and  _437
REMARK  176  A    between atoms: _442  and  _444
REMARK  177  A    between atoms: _444  and  _445
REMARK  178  A    between atoms: _444  and  _447
REMARK  179  A    between atoms: _447  and  _448
REMARK  180  A    between atoms: _453  and  _454
REMARK  181  A    between atoms: _456  and  _458
REMARK  182  A    between atoms: _458  and  _459
REMARK  183  A    between atoms: _458  and  _461
REMARK  184  A    between atoms: _461  and  _462
REMARK  185  A    between atoms: _462  and  _463
REMARK  186  A    between atoms: _463  and  _464
REMARK  187  A    between atoms: _464  and  _465
REMARK  188  A    between atoms: _469  and  _471
REMARK  189  A    between atoms: _471  and  _472
REMARK  190  A    between atoms: _471  and  _474
REMARK  191  A    between atoms: _474  and  _475
REMARK  192  A    between atoms: _477  and  _479
REMARK  193  A    between atoms: _479  and  _480
REMARK  194  A    between atoms: _479  and  _482
REMARK  195  A    between atoms: _482  and  _483
REMARK  196  A    between atoms: _486  and  _488
REMARK  197  A    between atoms: _488  and  _489
REMARK  198  A    between atoms: _488  and  _491
REMARK  199  A    between atoms: _491  and  _492
REMARK  200  A    between atoms: _492  and  _493
REMARK  201  A    between atoms: _496  and  _498
REMARK  202  A    between atoms: _498  and  _499
REMARK  203  A    between atoms: _502  and  _504
REMARK  204  A    between atoms: _504  and  _505
REMARK  205  A    between atoms: _504  and  _507
REMARK  206  A    between atoms: _507  and  _508
REMARK  207  A    between atoms: _510  and  _512
REMARK  208  A    between atoms: _512  and  _513
REMARK  209  A    between atoms: _515  and  _517
REMARK  210  A    between atoms: _517  and  _518
REMARK  211  A    between atoms: _517  and  _520
REMARK  212  A    between atoms: _520  and  _521
REMARK  213  A    between atoms: _524  and  _526
REMARK  214  A    between atoms: _526  and  _527
REMARK  215  A    between atoms: _529  and  _531
REMARK  216  A    between atoms: _531  and  _532
REMARK  217  A    between atoms: _531  and  _534
REMARK  218  A    between atoms: _534  and  _535
REMARK  219  A    between atoms: _540  and  _542
REMARK  220  A    between atoms: _542  and  _543
REMARK  221  A    between atoms: _542  and  _545
REMARK  222  A    between atoms: _545  and  _546
REMARK  223  A    between atoms: _546  and  _547
REMARK  224  A    between atoms: _554  and  _555
REMARK  225  A    between atoms: _555  and  _571
REMARK  226  A    between atoms: _556  and  _558
REMARK  227  A    between atoms: _558  and  _559
REMARK  228  A    between atoms: _559  and  _560
REMARK  229  A    between atoms: _564  and  _566
REMARK  230  A    between atoms: _566  and  _567
REMARK  231  A    between atoms: _566  and  _574
REMARK  232  A    between atoms: _567  and  _568
REMARK  233  A    between atoms: _568  and  _569
REMARK  234  A    between atoms: _569  and  _570
REMARK  235  A    between atoms: _570  and  _571
REMARK  236  A    between atoms: _576  and  _578
REMARK  237  A    between atoms: _578  and  _579
REMARK  238  A    between atoms: _578  and  _581
REMARK  239  A    between atoms: _581  and  _582
REMARK  240  A    between atoms: _585  and  _587
REMARK  241  A    between atoms: _587  and  _588
REMARK  242  A    between atoms: _590  and  _592
REMARK  243  A    between atoms: _592  and  _593
REMARK  244  A    between atoms: _596  and  _598
REMARK  245  A    between atoms: _598  and  _599
REMARK  246  A    between atoms: _598  and  _601
REMARK  247  A    between atoms: _601  and  _602
REMARK  248  A    between atoms: _607  and  _608
REMARK                            x       y       z     vdW  Elec       q    Type
REMARK                         _______ _______ _______ _____ _____    ______ ____
ROOT
ATOM      1  O   HOH     1      36.345  22.072  17.968  0.00  0.00    +0.000 OA
ENDROOT
TORSDOF 0
REMARK  Name = ../refined-set-2016/3g2i/3g2i_pocket.pdb
REMARK  248 active torsions:
REMARK  status: ('A' for Active; 'I' for Inactive)
REMARK    1  A    between atoms: _1  and  _3
REMARK    2  A    between atoms: _3  and  _4
REMARK    3  A    between atoms: _3  and  _6
REMARK    4  A    between atoms: _6  and  _7
REMARK    5  A    between atoms: _12  and  _13
REMARK    6  A    between atoms: _15  and  _17
REMARK    7  A    between atoms: _17  and  _18
REMARK    8  A    between atoms: _17  and  _20
REMARK    9  A    between atoms: _20  and  _21
REMARK   10  A    between atoms: _21  and  _22
REMARK   11  A    between atoms: _25  and  _27
REMARK   12  A    between atoms: _27  and  _28
REMARK   13  A    between atoms: _27  and  _30
REMARK   14  A    between atoms: _30  and  _31
REMARK   15  A    between atoms: _36  and  _38
REMARK   16  A    between atoms: _38  and  _39
REMARK   17  A    between atoms: _41  and  _43
REMARK   18  A    between atoms: _43  and  _44
REMARK   19  A    between atoms: _46  and  _48
REMARK   20  A    between atoms: _48  and  _49
REMARK   21  A    between atoms: _48  and  _51
REMARK   22  A    between atoms: _51  and  _52
REMARK   23  A    between atoms: _55  and  _57
REMARK   24  A    between atoms: _57  and  _58
REMARK   25  A    between atoms: _60  and  _62
REMARK   26  A    between atoms: _62  and  _63
REMARK   27  A    between atoms: _62  and  _65
REMARK   28  A    between atoms: _65  and  _66
REMARK   29  A    between atoms: _66  and  _67
REMARK   30  A    between atoms: _67  and  _68
REMARK   31  A    between atoms: _77  and  _79
REMARK   32  A    between atoms: _79  and  _80
REMARK   33  A    between atoms: _79  and  _82
REMARK   34  A    between atoms: _82  and  _83
REMARK   35  A    between atoms: _86  and  _88
REMARK   36  A    between atoms: _88  and  _89
REMARK   37  A    between atoms: _92  and  _94
REMARK   38  A    between atoms: _94  and  _95
REMARK   39  A    between atoms: _94  and  _97
REMARK   40  A    between atoms: _97  and  _98
REMARK   41  A    between atoms: _104  and  _106
REMARK   42  A    between atoms: _106  and  _107
REMARK   43  A    between atoms: _106  and  _109
REMARK   44  A    between atoms: _109  and  _110
REMARK   45  A    between atoms: _115  and  _117
REMARK   46  A    between atoms: _117  and  _118
REMARK   47  A    between atoms: _117  and  _120
REMARK   48  A    between atoms: _120  and  _121
REMARK   49  A    between atoms: _124  and  _126
REMARK   50  A    between atoms: _126  and  _127
REMARK   51  A    between atoms: _126  and  _129
REMARK   52  A    between atoms: _129  and  _130
REMARK   53  A    between atoms: _135  and  _137
REMARK   54  A    between atoms: _137  and  _138
REMARK   55  A    between atoms: _137  and  _140
REMARK   56  A    between atoms: _140  and  _141
REMARK   57  A    between atoms: _147  and  _149
REMARK   58  A    between atoms: _149  and  _150
REMARK   59  A    between atoms: _149  and  _152
REMARK   60  A    between atoms: _152  and  _153
REMARK   61  A    between atoms: _159  and  _161
REMARK   62  A    between atoms: _161  and  _162
REMARK   63  A    between atoms: _161  and  _164
REMARK   64  A    between atoms: _164  and  _165
REMARK   65  A    between atoms: _165  and  _166
REMARK   66  A    between atoms: _166  and  _167
REMARK   67  A    between atoms: _176  and  _178
REMARK   68  A    between atoms: _178  and  _179
REMARK   69  A    between atoms: _178  and  _181
REMARK   70  A    between atoms: _181  and  _182
REMARK   71  A    between atoms: _187  and  _189
REMARK   72  A    between atoms: _189  and  _190
REMARK   73  A    between atoms: _189  and  _192
REMARK   74  A    between atoms: _192  and  _193
REMARK   75  A    between atoms: _196  and  _198
REMARK   76  A    between atoms: _198  and  _199
REMARK   77  A    between atoms: _198  and  _201
REMARK   78  A    between atoms: _201  and  _202
REMARK   79  A    between atoms: _205  and  _207
REMARK   80  A    between atoms: _207  and  _208
REMARK   81  A    between atoms: _207  and  _210
REMARK   82  A    between atoms: _210  and  _211
REMARK   83  A    between atoms: _216  and  _218
REMARK   84  A    between atoms: _218  and  _219
REMARK   85  A    between atoms: _218  and  _221
REMARK   86  A    between atoms: _221  and  _222
REMARK   87  A    between atoms: _227  and  _228
REMARK   88  A    between atoms: _230  and  _232
REMARK   89  A    between atoms: _232  and  _233
REMARK   90  A    between atoms: _232  and  _235
REMARK   91  A    between atoms: _235  and  _236
REMARK   92  A    between atoms: _239  and  _241
REMARK   93  A    between atoms: _241  and  _242
REMARK   94  A    between atoms: _241  and  _244
REMARK   95  A    between atoms: _244  and  _245
REMARK   96  A    between atoms: _250  and  _252
REMARK   97  A    between atoms: _252  and  _253
REMARK   98  A    between atoms: _252  and  _255
REMARK   99  A    between atoms: _255  and  _256
REMARK  100  A    between atoms: _261  and  _263
REMARK  101  A    between atoms: _263  and  _264
REMARK  102  A    between atoms: _263  and  _266
REMARK  103  A    between atoms: _266  and  _267
REMARK  104  A    between atoms: _270  and  _272
REMARK  105  A    between atoms: _272  and  _273
REMARK  106  A    between atoms: _272  and  _275
REMARK  107  A    between atoms: _278  and  _280
REMARK  108  A    between atoms: _280  and  _281
REMARK  109  A    between atoms: _280  and  _283
REMARK  110  A    between atoms: _283  and  _284
REMARK  111  A    between atoms: _287  and  _289
REMARK  112  A    between atoms: _289  and  _290
REMARK  113  A    between atoms: _289  and  _292
REMARK  114  A    between atoms: _292  and  _293
REMARK  115  A    between atoms: _293  and  _294
REMARK  116  A    between atoms: _297  and  _299
REMARK  117  A    between atoms: _299  and  _300
REMARK  118  A    between atoms: _303  and  _305
REMARK  119  A    between atoms: _305  and  _306
REMARK  120  A    between atoms: _305  and  _308
REMARK  121  A    between atoms: _308  and  _309
REMARK  122  A    between atoms: _312  and  _314
REMARK  123  A    between atoms: _314  and  _315
REMARK  124  A    between atoms: _314  and  _317
REMARK  125  A    between atoms: _317  and  _318
REMARK  126  A    between atoms: _318  and  _319
REMARK  127  A    between atoms: _322  and  _324
REMARK  128  A    between atoms: _324  and  _325
REMARK  129  A    between atoms: _324  and  _327
REMARK  130  A    between atoms: _327  and  _328
REMARK  131  A    between atoms: _333  and  _335
REMARK  132  A    between atoms: _335  and  _336
REMARK  133  A    between atoms: _338  and  _340
REMARK  134  A    between atoms: _340  and  _341
REMARK  135  A    between atoms: _340  and  _343
REMARK  136  A    between atoms: _346  and  _348
REMARK  137  A    between atoms: _348  and  _349
REMARK  138  A    between atoms: _352  and  _354
REMARK  139  A    between atoms: _354  and  _355
REMARK  140  A    between atoms: _354  and  _357
REMARK  141  A    between atoms: _357  and  _358
REMARK  142  A    between atoms: _363  and  _365
REMARK  143  A    between atoms: _365  and  _366
REMARK  144  A    between atoms: _365  and  _368
REMARK  145  A    between atoms: _368  and  _369
REMARK  146  A    between atoms: _369  and  _370
REMARK  147  A    between atoms: _370  and  _371
REMARK  148  A    between atoms: _371  and  _372
REMARK  149  A    between atoms: _376  and  _378
REMARK  150  A    between atoms: _378  and  _379
REMARK  151  A    between atoms: _378  and  _381
REMARK  152  A    between atoms: _381  and  _382
REMARK  153  A    between atoms: _385  and  _387
REMARK  154  A    between atoms: _387  and  _388
REMARK  155  A    between atoms: _387  and  _390
REMARK  156  A    between atoms: _390  and  _391
REMARK  157  A    between atoms: _396  and  _398
REMARK  158  A    between atoms: _398  and  _399
REMARK  159  A    between atoms: _401  and  _403
REMARK  160  A    between atoms: _403  and  _404
REMARK  161  A    between atoms: _403  and  _406
REMARK  162  A    between atoms: _406  and  _407
REMARK  163  A    between atoms: _407  and  _408
REMARK  164  A    between atoms: _408  and  _409
REMARK  165  A    between atoms: _409  and  _410
REMARK  166  A    between atoms: _414  and  _416
REMARK  167  A    between atoms: _416  and  _417
REMARK  168  A    between atoms: _416  and  _419
REMARK  169  A    between atoms: _419  and  _420
REMARK  170  A    between atoms: _420  and  _421
REMARK  171  A    between atoms: _421  and  _422
REMARK  172  A    between atoms: _431  and  _433
REMARK  173  A    between atoms: _433  and  _434
REMARK  174  A    between atoms: _433  and  _436
REMARK  175  A    between atoms: _436  and  _437
REMARK  176  A    between atoms: _442  and  _444
REMARK  177  A    between atoms: _444  and  _445
REMARK  178  A    between atoms: _444  and  _447
REMARK  179  A    between atoms: _447  and  _448
REMARK  180  A    between atoms: _453  and  _454
REMARK  181  A    between atoms: _456  and  _458
REMARK  182  A    between atoms: _458  and  _459
REMARK  183  A    between atoms: _458  and  _461
REMARK  184  A    between atoms: _461  and  _462
REMARK  185  A    between atoms: _462  and  _463
REMARK  186  A    between atoms: _463  and  _464
REMARK  187  A    between atoms: _464  and  _465
REMARK  188  A    between atoms: _469  and  _471
REMARK  189  A    between atoms: _471  and  _472
REMARK  190  A    between atoms: _471  and  _474
REMARK  191  A    between atoms: _474  and  _475
REMARK  192  A    between atoms: _477  and  _479
REMARK  193  A    between atoms: _479  and  _480
REMARK  194  A    between atoms: _479  and  _482
REMARK  195  A    between atoms: _482  and  _483
REMARK  196  A    between atoms: _486  and  _488
REMARK  197  A    between atoms: _488  and  _489
REMARK  198  A    between atoms: _488  and  _491
REMARK  199  A    between atoms: _491  and  _492
REMARK  200  A    between atoms: _492  and  _493
REMARK  201  A    between atoms: _496  and  _498
REMARK  202  A    between atoms: _498  and  _499
REMARK  203  A    between atoms: _502  and  _504
REMARK  204  A    between atoms: _504  and  _505
REMARK  205  A    between atoms: _504  and  _507
REMARK  206  A    between atoms: _507  and  _508
REMARK  207  A    between atoms: _510  and  _512
REMARK  208  A    between atoms: _512  and  _513
REMARK  209  A    between atoms: _515  and  _517
REMARK  210  A    between atoms: _517  and  _518
REMARK  211  A    between atoms: _517  and  _520
REMARK  212  A    between atoms: _520  and  _521
REMARK  213  A    between atoms: _524  and  _526
REMARK  214  A    between atoms: _526  and  _527
REMARK  215  A    between atoms: _529  and  _531
REMARK  216  A    between atoms: _531  and  _532
REMARK  217  A    between atoms: _531  and  _534
REMARK  218  A    between atoms: _534  and  _535
REMARK  219  A    between atoms: _540  and  _542
REMARK  220  A    between atoms: _542  and  _543
REMARK  221  A    between atoms: _542  and  _545
REMARK  222  A    between atoms: _545  and  _546
REMARK  223  A    between atoms: _546  and  _547
REMARK  224  A    between atoms: _554  and  _555
REMARK  225  A    between atoms: _555  and  _571
REMARK  226  A    between atoms: _556  and  _558
REMARK  227  A    between atoms: _558  and  _559
REMARK  228  A    between atoms: _559  and  _560
REMARK  229  A    between atoms: _564  and  _566
REMARK  230  A    between atoms: _566  and  _567
REMARK  231  A    between atoms: _566  and  _574
REMARK  232  A    between atoms: _567  and  _568
REMARK  233  A    between atoms: _568  and  _569
REMARK  234  A    between atoms: _569  and  _570
REMARK  235  A    between atoms: _570  and  _571
REMARK  236  A    between atoms: _576  and  _578
REMARK  237  A    between atoms: _578  and  _579
REMARK  238  A    between atoms: _578  and  _581
REMARK  239  A    between atoms: _581  and  _582
REMARK  240  A    between atoms: _585  and  _587
REMARK  241  A    between atoms: _587  and  _588
REMARK  242  A    between atoms: _590  and  _592
REMARK  243  A    between atoms: _592  and  _593
REMARK  244  A    between atoms: _596  and  _598
REMARK  245  A    between atoms: _598  and  _599
REMARK  246  A    between atoms: _598  and  _601
REMARK  247  A    between atoms: _601  and  _602
REMARK  248  A    between atoms: _607  and  _608
REMARK                            x       y       z     vdW  Elec       q    Type
REMARK                         _______ _______ _______ _____ _____    ______ ____
ROOT
ATOM      1  O   HOH     1      29.237  25.907  18.096  0.00  0.00    +0.000 OA
ENDROOT
TORSDOF 0
REMARK  Name = ../refined-set-2016/3g2i/3g2i_pocket.pdb
REMARK  248 active torsions:
REMARK  status: ('A' for Active; 'I' for Inactive)
REMARK    1  A    between atoms: _1  and  _3
REMARK    2  A    between atoms: _3  and  _4
REMARK    3  A    between atoms: _3  and  _6
REMARK    4  A    between atoms: _6  and  _7
REMARK    5  A    between atoms: _12  and  _13
REMARK    6  A    between atoms: _15  and  _17
REMARK    7  A    between atoms: _17  and  _18
REMARK    8  A    between atoms: _17  and  _20
REMARK    9  A    between atoms: _20  and  _21
REMARK   10  A    between atoms: _21  and  _22
REMARK   11  A    between atoms: _25  and  _27
REMARK   12  A    between atoms: _27  and  _28
REMARK   13  A    between atoms: _27  and  _30
REMARK   14  A    between atoms: _30  and  _31
REMARK   15  A    between atoms: _36  and  _38
REMARK   16  A    between atoms: _38  and  _39
REMARK   17  A    between atoms: _41  and  _43
REMARK   18  A    between atoms: _43  and  _44
REMARK   19  A    between atoms: _46  and  _48
REMARK   20  A    between atoms: _48  and  _49
REMARK   21  A    between atoms: _48  and  _51
REMARK   22  A    between atoms: _51  and  _52
REMARK   23  A    between atoms: _55  and  _57
REMARK   24  A    between atoms: _57  and  _58
REMARK   25  A    between atoms: _60  and  _62
REMARK   26  A    between atoms: _62  and  _63
REMARK   27  A    between atoms: _62  and  _65
REMARK   28  A    between atoms: _65  and  _66
REMARK   29  A    between atoms: _66  and  _67
REMARK   30  A    between atoms: _67  and  _68
REMARK   31  A    between atoms: _77  and  _79
REMARK   32  A    between atoms: _79  and  _80
REMARK   33  A    between atoms: _79  and  _82
REMARK   34  A    between atoms: _82  and  _83
REMARK   35  A    between atoms: _86  and  _88
REMARK   36  A    between atoms: _88  and  _89
REMARK   37  A    between atoms: _92  and  _94
REMARK   38  A    between atoms: _94  and  _95
REMARK   39  A    between atoms: _94  and  _97
REMARK   40  A    between atoms: _97  and  _98
REMARK   41  A    between atoms: _104  and  _106
REMARK   42  A    between atoms: _106  and  _107
REMARK   43  A    between atoms: _106  and  _109
REMARK   44  A    between atoms: _109  and  _110
REMARK   45  A    between atoms: _115  and  _117
REMARK   46  A    between atoms: _117  and  _118
REMARK   47  A    between atoms: _117  and  _120
REMARK   48  A    between atoms: _120  and  _121
REMARK   49  A    between atoms: _124  and  _126
REMARK   50  A    between atoms: _126  and  _127
REMARK   51  A    between atoms: _126  and  _129
REMARK   52  A    between atoms: _129  and  _130
REMARK   53  A    between atoms: _135  and  _137
REMARK   54  A    between atoms: _137  and  _138
REMARK   55  A    between atoms: _137  and  _140
REMARK   56  A    between atoms: _140  and  _141
REMARK   57  A    between atoms: _147  and  _149
REMARK   58  A    between atoms: _149  and  _150
REMARK   59  A    between atoms: _149  and  _152
REMARK   60  A    between atoms: _152  and  _153
REMARK   61  A    between atoms: _159  and  _161
REMARK   62  A    between atoms: _161  and  _162
REMARK   63  A    between atoms: _161  and  _164
REMARK   64  A    between atoms: _164  and  _165
REMARK   65  A    between atoms: _165  and  _166
REMARK   66  A    between atoms: _166  and  _167
REMARK   67  A    between atoms: _176  and  _178
REMARK   68  A    between atoms: _178  and  _179
REMARK   69  A    between atoms: _178  and  _181
REMARK   70  A    between atoms: _181  and  _182
REMARK   71  A    between atoms: _187  and  _189
REMARK   72  A    between atoms: _189  and  _190
REMARK   73  A    between atoms: _189  and  _192
REMARK   74  A    between atoms: _192  and  _193
REMARK   75  A    between atoms: _196  and  _198
REMARK   76  A    between atoms: _198  and  _199
REMARK   77  A    between atoms: _198  and  _201
REMARK   78  A    between atoms: _201  and  _202
REMARK   79  A    between atoms: _205  and  _207
REMARK   80  A    between atoms: _207  and  _208
REMARK   81  A    between atoms: _207  and  _210
REMARK   82  A    between atoms: _210  and  _211
REMARK   83  A    between atoms: _216  and  _218
REMARK   84  A    between atoms: _218  and  _219
REMARK   85  A    between atoms: _218  and  _221
REMARK   86  A    between atoms: _221  and  _222
REMARK   87  A    between atoms: _227  and  _228
REMARK   88  A    between atoms: _230  and  _232
REMARK   89  A    between atoms: _232  and  _233
REMARK   90  A    between atoms: _232  and  _235
REMARK   91  A    between atoms: _235  and  _236
REMARK   92  A    between atoms: _239  and  _241
REMARK   93  A    between atoms: _241  and  _242
REMARK   94  A    between atoms: _241  and  _244
REMARK   95  A    between atoms: _244  and  _245
REMARK   96  A    between atoms: _250  and  _252
REMARK   97  A    between atoms: _252  and  _253
REMARK   98  A    between atoms: _252  and  _255
REMARK   99  A    between atoms: _255  and  _256
REMARK  100  A    between atoms: _261  and  _263
REMARK  101  A    between atoms: _263  and  _264
REMARK  102  A    between atoms: _263  and  _266
REMARK  103  A    between atoms: _266  and  _267
REMARK  104  A    between atoms: _270  and  _272
REMARK  105  A    between atoms: _272  and  _273
REMARK  106  A    between atoms: _272  and  _275
REMARK  107  A    between atoms: _278  and  _280
REMARK  108  A    between atoms: _280  and  _281
REMARK  109  A    between atoms: _280  and  _283
REMARK  110  A    between atoms: _283  and  _284
REMARK  111  A    between atoms: _287  and  _289
REMARK  112  A    between atoms: _289  and  _290
REMARK  113  A    between atoms: _289  and  _292
REMARK  114  A    between atoms: _292  and  _293
REMARK  115  A    between atoms: _293  and  _294
REMARK  116  A    between atoms: _297  and  _299
REMARK  117  A    between atoms: _299  and  _300
REMARK  118  A    between atoms: _303  and  _305
REMARK  119  A    between atoms: _305  and  _306
REMARK  120  A    between atoms: _305  and  _308
REMARK  121  A    between atoms: _308  and  _309
REMARK  122  A    between atoms: _312  and  _314
REMARK  123  A    between atoms: _314  and  _315
REMARK  124  A    between atoms: _314  and  _317
REMARK  125  A    between atoms: _317  and  _318
REMARK  126  A    between atoms: _318  and  _319
REMARK  127  A    between atoms: _322  and  _324
REMARK  128  A    between atoms: _324  and  _325
REMARK  129  A    between atoms: _324  and  _327
REMARK  130  A    between atoms: _327  and  _328
REMARK  131  A    between atoms: _333  and  _335
REMARK  132  A    between atoms: _335  and  _336
REMARK  133  A    between atoms: _338  and  _340
REMARK  134  A    between atoms: _340  and  _341
REMARK  135  A    between atoms: _340  and  _343
REMARK  136  A    between atoms: _346  and  _348
REMARK  137  A    between atoms: _348  and  _349
REMARK  138  A    between atoms: _352  and  _354
REMARK  139  A    between atoms: _354  and  _355
REMARK  140  A    between atoms: _354  and  _357
REMARK  141  A    between atoms: _357  and  _358
REMARK  142  A    between atoms: _363  and  _365
REMARK  143  A    between atoms: _365  and  _366
REMARK  144  A    between atoms: _365  and  _368
REMARK  145  A    between atoms: _368  and  _369
REMARK  146  A    between atoms: _369  and  _370
REMARK  147  A    between atoms: _370  and  _371
REMARK  148  A    between atoms: _371  and  _372
REMARK  149  A    between atoms: _376  and  _378
REMARK  150  A    between atoms: _378  and  _379
REMARK  151  A    between atoms: _378  and  _381
REMARK  152  A    between atoms: _381  and  _382
REMARK  153  A    between atoms: _385  and  _387
REMARK  154  A    between atoms: _387  and  _388
REMARK  155  A    between atoms: _387  and  _390
REMARK  156  A    between atoms: _390  and  _391
REMARK  157  A    between atoms: _396  and  _398
REMARK  158  A    between atoms: _398  and  _399
REMARK  159  A    between atoms: _401  and  _403
REMARK  160  A    between atoms: _403  and  _404
REMARK  161  A    between atoms: _403  and  _406
REMARK  162  A    between atoms: _406  and  _407
REMARK  163  A    between atoms: _407  and  _408
REMARK  164  A    between atoms: _408  and  _409
REMARK  165  A    between atoms: _409  and  _410
REMARK  166  A    between atoms: _414  and  _416
REMARK  167  A    between atoms: _416  and  _417
REMARK  168  A    between atoms: _416  and  _419
REMARK  169  A    between atoms: _419  and  _420
REMARK  170  A    between atoms: _420  and  _421
REMARK  171  A    between atoms: _421  and  _422
REMARK  172  A    between atoms: _431  and  _433
REMARK  173  A    between atoms: _433  and  _434
REMARK  174  A    between atoms: _433  and  _436
REMARK  175  A    between atoms: _436  and  _437
REMARK  176  A    between atoms: _442  and  _444
REMARK  177  A    between atoms: _444  and  _445
REMARK  178  A    between atoms: _444  and  _447
REMARK  179  A    between atoms: _447  and  _448
REMARK  180  A    between atoms: _453  and  _454
REMARK  181  A    between atoms: _456  and  _458
REMARK  182  A    between atoms: _458  and  _459
REMARK  183  A    between atoms: _458  and  _461
REMARK  184  A    between atoms: _461  and  _462
REMARK  185  A    between atoms: _462  and  _463
REMARK  186  A    between atoms: _463  and  _464
REMARK  187  A    between atoms: _464  and  _465
REMARK  188  A    between atoms: _469  and  _471
REMARK  189  A    between atoms: _471  and  _472
REMARK  190  A    between atoms: _471  and  _474
REMARK  191  A    between atoms: _474  and  _475
REMARK  192  A    between atoms: _477  and  _479
REMARK  193  A    between atoms: _479  and  _480
REMARK  194  A    between atoms: _479  and  _482
REMARK  195  A    between atoms: _482  and  _483
REMARK  196  A    between atoms: _486  and  _488
REMARK  197  A    between atoms: _488  and  _489
REMARK  198  A    between atoms: _488  and  _491
REMARK  199  A    between atoms: _491  and  _492
REMARK  200  A    between atoms: _492  and  _493
REMARK  201  A    between atoms: _496  and  _498
REMARK  202  A    between atoms: _498  and  _499
REMARK  203  A    between atoms: _502  and  _504
REMARK  204  A    between atoms: _504  and  _505
REMARK  205  A    between atoms: _504  and  _507
REMARK  206  A    between atoms: _507  and  _508
REMARK  207  A    between atoms: _510  and  _512
REMARK  208  A    between atoms: _512  and  _513
REMARK  209  A    between atoms: _515  and  _517
REMARK  210  A    between atoms: _517  and  _518
REMARK  211  A    between atoms: _517  and  _520
REMARK  212  A    between atoms: _520  and  _521
REMARK  213  A    between atoms: _524  and  _526
REMARK  214  A    between atoms: _526  and  _527
REMARK  215  A    between atoms: _529  and  _531
REMARK  216  A    between atoms: _531  and  _532
REMARK  217  A    between atoms: _531  and  _534
REMARK  218  A    between atoms: _534  and  _535
REMARK  219  A    between atoms: _540  and  _542
REMARK  220  A    between atoms: _542  and  _543
REMARK  221  A    between atoms: _542  and  _545
REMARK  222  A    between atoms: _545  and  _546
REMARK  223  A    between atoms: _546  and  _547
REMARK  224  A    between atoms: _554  and  _555
REMARK  225  A    between atoms: _555  and  _571
REMARK  226  A    between atoms: _556  and  _558
REMARK  227  A    between atoms: _558  and  _559
REMARK  228  A    between atoms: _559  and  _560
REMARK  229  A    between atoms: _564  and  _566
REMARK  230  A    between atoms: _566  and  _567
REMARK  231  A    between atoms: _566  and  _574
REMARK  232  A    between atoms: _567  and  _568
REMARK  233  A    between atoms: _568  and  _569
REMARK  234  A    between atoms: _569  and  _570
REMARK  235  A    between atoms: _570  and  _571
REMARK  236  A    between atoms: _576  and  _578
REMARK  237  A    between atoms: _578  and  _579
REMARK  238  A    between atoms: _578  and  _581
REMARK  239  A    between atoms: _581  and  _582
REMARK  240  A    between atoms: _585  and  _587
REMARK  241  A    between atoms: _587  and  _588
REMARK  242  A    between atoms: _590  and  _592
REMARK  243  A    between atoms: _592  and  _593
REMARK  244  A    between atoms: _596  and  _598
REMARK  245  A    between atoms: _598  and  _599
REMARK  246  A    between atoms: _598  and  _601
REMARK  247  A    between atoms: _601  and  _602
REMARK  248  A    between atoms: _607  and  _608
REMARK                            x       y       z     vdW  Elec       q    Type
REMARK                         _______ _______ _______ _____ _____    ______ ____
ROOT
ATOM      1  O   HOH     1      29.616  23.107  18.533  0.00  0.00    +0.000 OA
ENDROOT
TORSDOF 0
REMARK  Name = ../refined-set-2016/3g2i/3g2i_pocket.pdb
REMARK  248 active torsions:
REMARK  status: ('A' for Active; 'I' for Inactive)
REMARK    1  A    between atoms: _1  and  _3
REMARK    2  A    between atoms: _3  and  _4
REMARK    3  A    between atoms: _3  and  _6
REMARK    4  A    between atoms: _6  and  _7
REMARK    5  A    between atoms: _12  and  _13
REMARK    6  A    between atoms: _15  and  _17
REMARK    7  A    between atoms: _17  and  _18
REMARK    8  A    between atoms: _17  and  _20
REMARK    9  A    between atoms: _20  and  _21
REMARK   10  A    between atoms: _21  and  _22
REMARK   11  A    between atoms: _25  and  _27
REMARK   12  A    between atoms: _27  and  _28
REMARK   13  A    between atoms: _27  and  _30
REMARK   14  A    between atoms: _30  and  _31
REMARK   15  A    between atoms: _36  and  _38
REMARK   16  A    between atoms: _38  and  _39
REMARK   17  A    between atoms: _41  and  _43
REMARK   18  A    between atoms: _43  and  _44
REMARK   19  A    between atoms: _46  and  _48
REMARK   20  A    between atoms: _48  and  _49
REMARK   21  A    between atoms: _48  and  _51
REMARK   22  A    between atoms: _51  and  _52
REMARK   23  A    between atoms: _55  and  _57
REMARK   24  A    between atoms: _57  and  _58
REMARK   25  A    between atoms: _60  and  _62
REMARK   26  A    between atoms: _62  and  _63
REMARK   27  A    between atoms: _62  and  _65
REMARK   28  A    between atoms: _65  and  _66
REMARK   29  A    between atoms: _66  and  _67
REMARK   30  A    between atoms: _67  and  _68
REMARK   31  A    between atoms: _77  and  _79
REMARK   32  A    between atoms: _79  and  _80
REMARK   33  A    between atoms: _79  and  _82
REMARK   34  A    between atoms: _82  and  _83
REMARK   35  A    between atoms: _86  and  _88
REMARK   36  A    between atoms: _88  and  _89
REMARK   37  A    between atoms: _92  and  _94
REMARK   38  A    between atoms: _94  and  _95
REMARK   39  A    between atoms: _94  and  _97
REMARK   40  A    between atoms: _97  and  _98
REMARK   41  A    between atoms: _104  and  _106
REMARK   42  A    between atoms: _106  and  _107
REMARK   43  A    between atoms: _106  and  _109
REMARK   44  A    between atoms: _109  and  _110
REMARK   45  A    between atoms: _115  and  _117
REMARK   46  A    between atoms: _117  and  _118
REMARK   47  A    between atoms: _117  and  _120
REMARK   48  A    between atoms: _120  and  _121
REMARK   49  A    between atoms: _124  and  _126
REMARK   50  A    between atoms: _126  and  _127
REMARK   51  A    between atoms: _126  and  _129
REMARK   52  A    between atoms: _129  and  _130
REMARK   53  A    between atoms: _135  and  _137
REMARK   54  A    between atoms: _137  and  _138
REMARK   55  A    between atoms: _137  and  _140
REMARK   56  A    between atoms: _140  and  _141
REMARK   57  A    between atoms: _147  and  _149
REMARK   58  A    between atoms: _149  and  _150
REMARK   59  A    between atoms: _149  and  _152
REMARK   60  A    between atoms: _152  and  _153
REMARK   61  A    between atoms: _159  and  _161
REMARK   62  A    between atoms: _161  and  _162
REMARK   63  A    between atoms: _161  and  _164
REMARK   64  A    between atoms: _164  and  _165
REMARK   65  A    between atoms: _165  and  _166
REMARK   66  A    between atoms: _166  and  _167
REMARK   67  A    between atoms: _176  and  _178
REMARK   68  A    between atoms: _178  and  _179
REMARK   69  A    between atoms: _178  and  _181
REMARK   70  A    between atoms: _181  and  _182
REMARK   71  A    between atoms: _187  and  _189
REMARK   72  A    between atoms: _189  and  _190
REMARK   73  A    between atoms: _189  and  _192
REMARK   74  A    between atoms: _192  and  _193
REMARK   75  A    between atoms: _196  and  _198
REMARK   76  A    between atoms: _198  and  _199
REMARK   77  A    between atoms: _198  and  _201
REMARK   78  A    between atoms: _201  and  _202
REMARK   79  A    between atoms: _205  and  _207
REMARK   80  A    between atoms: _207  and  _208
REMARK   81  A    between atoms: _207  and  _210
REMARK   82  A    between atoms: _210  and  _211
REMARK   83  A    between atoms: _216  and  _218
REMARK   84  A    between atoms: _218  and  _219
REMARK   85  A    between atoms: _218  and  _221
REMARK   86  A    between atoms: _221  and  _222
REMARK   87  A    between atoms: _227  and  _228
REMARK   88  A    between atoms: _230  and  _232
REMARK   89  A    between atoms: _232  and  _233
REMARK   90  A    between atoms: _232  and  _235
REMARK   91  A    between atoms: _235  and  _236
REMARK   92  A    between atoms: _239  and  _241
REMARK   93  A    between atoms: _241  and  _242
REMARK   94  A    between atoms: _241  and  _244
REMARK   95  A    between atoms: _244  and  _245
REMARK   96  A    between atoms: _250  and  _252
REMARK   97  A    between atoms: _252  and  _253
REMARK   98  A    between atoms: _252  and  _255
REMARK   99  A    between atoms: _255  and  _256
REMARK  100  A    between atoms: _261  and  _263
REMARK  101  A    between atoms: _263  and  _264
REMARK  102  A    between atoms: _263  and  _266
REMARK  103  A    between atoms: _266  and  _267
REMARK  104  A    between atoms: _270  and  _272
REMARK  105  A    between atoms: _272  and  _273
REMARK  106  A    between atoms: _272  and  _275
REMARK  107  A    between atoms: _278  and  _280
REMARK  108  A    between atoms: _280  and  _281
REMARK  109  A    between atoms: _280  and  _283
REMARK  110  A    between atoms: _283  and  _284
REMARK  111  A    between atoms: _287  and  _289
REMARK  112  A    between atoms: _289  and  _290
REMARK  113  A    between atoms: _289  and  _292
REMARK  114  A    between atoms: _292  and  _293
REMARK  115  A    between atoms: _293  and  _294
REMARK  116  A    between atoms: _297  and  _299
REMARK  117  A    between atoms: _299  and  _300
REMARK  118  A    between atoms: _303  and  _305
REMARK  119  A    between atoms: _305  and  _306
REMARK  120  A    between atoms: _305  and  _308
REMARK  121  A    between atoms: _308  and  _309
REMARK  122  A    between atoms: _312  and  _314
REMARK  123  A    between atoms: _314  and  _315
REMARK  124  A    between atoms: _314  and  _317
REMARK  125  A    between atoms: _317  and  _318
REMARK  126  A    between atoms: _318  and  _319
REMARK  127  A    between atoms: _322  and  _324
REMARK  128  A    between atoms: _324  and  _325
REMARK  129  A    between atoms: _324  and  _327
REMARK  130  A    between atoms: _327  and  _328
REMARK  131  A    between atoms: _333  and  _335
REMARK  132  A    between atoms: _335  and  _336
REMARK  133  A    between atoms: _338  and  _340
REMARK  134  A    between atoms: _340  and  _341
REMARK  135  A    between atoms: _340  and  _343
REMARK  136  A    between atoms: _346  and  _348
REMARK  137  A    between atoms: _348  and  _349
REMARK  138  A    between atoms: _352  and  _354
REMARK  139  A    between atoms: _354  and  _355
REMARK  140  A    between atoms: _354  and  _357
REMARK  141  A    between atoms: _357  and  _358
REMARK  142  A    between atoms: _363  and  _365
REMARK  143  A    between atoms: _365  and  _366
REMARK  144  A    between atoms: _365  and  _368
REMARK  145  A    between atoms: _368  and  _369
REMARK  146  A    between atoms: _369  and  _370
REMARK  147  A    between atoms: _370  and  _371
REMARK  148  A    between atoms: _371  and  _372
REMARK  149  A    between atoms: _376  and  _378
REMARK  150  A    between atoms: _378  and  _379
REMARK  151  A    between atoms: _378  and  _381
REMARK  152  A    between atoms: _381  and  _382
REMARK  153  A    between atoms: _385  and  _387
REMARK  154  A    between atoms: _387  and  _388
REMARK  155  A    between atoms: _387  and  _390
REMARK  156  A    between atoms: _390  and  _391
REMARK  157  A    between atoms: _396  and  _398
REMARK  158  A    between atoms: _398  and  _399
REMARK  159  A    between atoms: _401  and  _403
REMARK  160  A    between atoms: _403  and  _404
REMARK  161  A    between atoms: _403  and  _406
REMARK  162  A    between atoms: _406  and  _407
REMARK  163  A    between atoms: _407  and  _408
REMARK  164  A    between atoms: _408  and  _409
REMARK  165  A    between atoms: _409  and  _410
REMARK  166  A    between atoms: _414  and  _416
REMARK  167  A    between atoms: _416  and  _417
REMARK  168  A    between atoms: _416  and  _419
REMARK  169  A    between atoms: _419  and  _420
REMARK  170  A    between atoms: _420  and  _421
REMARK  171  A    between atoms: _421  and  _422
REMARK  172  A    between atoms: _431  and  _433
REMARK  173  A    between atoms: _433  and  _434
REMARK  174  A    between atoms: _433  and  _436
REMARK  175  A    between atoms: _436  and  _437
REMARK  176  A    between atoms: _442  and  _444
REMARK  177  A    between atoms: _444  and  _445
REMARK  178  A    between atoms: _444  and  _447
REMARK  179  A    between atoms: _447  and  _448
REMARK  180  A    between atoms: _453  and  _454
REMARK  181  A    between atoms: _456  and  _458
REMARK  182  A    between atoms: _458  and  _459
REMARK  183  A    between atoms: _458  and  _461
REMARK  184  A    between atoms: _461  and  _462
REMARK  185  A    between atoms: _462  and  _463
REMARK  186  A    between atoms: _463  and  _464
REMARK  187  A    between atoms: _464  and  _465
REMARK  188  A    between atoms: _469  and  _471
REMARK  189  A    between atoms: _471  and  _472
REMARK  190  A    between atoms: _471  and  _474
REMARK  191  A    between atoms: _474  and  _475
REMARK  192  A    between atoms: _477  and  _479
REMARK  193  A    between atoms: _479  and  _480
REMARK  194  A    between atoms: _479  and  _482
REMARK  195  A    between atoms: _482  and  _483
REMARK  196  A    between atoms: _486  and  _488
REMARK  197  A    between atoms: _488  and  _489
REMARK  198  A    between atoms: _488  and  _491
REMARK  199  A    between atoms: _491  and  _492
REMARK  200  A    between atoms: _492  and  _493
REMARK  201  A    between atoms: _496  and  _498
REMARK  202  A    between atoms: _498  and  _499
REMARK  203  A    between atoms: _502  and  _504
REMARK  204  A    between atoms: _504  and  _505
REMARK  205  A    between atoms: _504  and  _507
REMARK  206  A    between atoms: _507  and  _508
REMARK  207  A    between atoms: _510  and  _512
REMARK  208  A    between atoms: _512  and  _513
REMARK  209  A    between atoms: _515  and  _517
REMARK  210  A    between atoms: _517  and  _518
REMARK  211  A    between atoms: _517  and  _520
REMARK  212  A    between atoms: _520  and  _521
REMARK  213  A    between atoms: _524  and  _526
REMARK  214  A    between atoms: _526  and  _527
REMARK  215  A    between atoms: _529  and  _531
REMARK  216  A    between atoms: _531  and  _532
REMARK  217  A    between atoms: _531  and  _534
REMARK  218  A    between atoms: _534  and  _535
REMARK  219  A    between atoms: _540  and  _542
REMARK  220  A    between atoms: _542  and  _543
REMARK  221  A    between atoms: _542  and  _545
REMARK  222  A    between atoms: _545  and  _546
REMARK  223  A    between atoms: _546  and  _547
REMARK  224  A    between atoms: _554  and  _555
REMARK  225  A    between atoms: _555  and  _571
REMARK  226  A    between atoms: _556  and  _558
REMARK  227  A    between atoms: _558  and  _559
REMARK  228  A    between atoms: _559  and  _560
REMARK  229  A    between atoms: _564  and  _566
REMARK  230  A    between atoms: _566  and  _567
REMARK  231  A    between atoms: _566  and  _574
REMARK  232  A    between atoms: _567  and  _568
REMARK  233  A    between atoms: _568  and  _569
REMARK  234  A    between atoms: _569  and  _570
REMARK  235  A    between atoms: _570  and  _571
REMARK  236  A    between atoms: _576  and  _578
REMARK  237  A    between atoms: _578  and  _579
REMARK  238  A    between atoms: _578  and  _581
REMARK  239  A    between atoms: _581  and  _582
REMARK  240  A    between atoms: _585  and  _587
REMARK  241  A    between atoms: _587  and  _588
REMARK  242  A    between atoms: _590  and  _592
REMARK  243  A    between atoms: _592  and  _593
REMARK  244  A    between atoms: _596  and  _598
REMARK  245  A    between atoms: _598  and  _599
REMARK  246  A    between atoms: _598  and  _601
REMARK  247  A    between atoms: _601  and  _602
REMARK  248  A    between atoms: _607  and  _608
REMARK                            x       y       z     vdW  Elec       q    Type
REMARK                         _______ _______ _______ _____ _____    ______ ____
ROOT
ATOM      1  O   HOH     1      26.720  19.096  28.699  0.00  0.00    +0.000 OA
ENDROOT
TORSDOF 0
REMARK  Name = ../refined-set-2016/3g2i/3g2i_pocket.pdb
REMARK  248 active torsions:
REMARK  status: ('A' for Active; 'I' for Inactive)
REMARK    1  A    between atoms: _1  and  _3
REMARK    2  A    between atoms: _3  and  _4
REMARK    3  A    between atoms: _3  and  _6
REMARK    4  A    between atoms: _6  and  _7
REMARK    5  A    between atoms: _12  and  _13
REMARK    6  A    between atoms: _15  and  _17
REMARK    7  A    between atoms: _17  and  _18
REMARK    8  A    between atoms: _17  and  _20
REMARK    9  A    between atoms: _20  and  _21
REMARK   10  A    between atoms: _21  and  _22
REMARK   11  A    between atoms: _25  and  _27
REMARK   12  A    between atoms: _27  and  _28
REMARK   13  A    between atoms: _27  and  _30
REMARK   14  A    between atoms: _30  and  _31
REMARK   15  A    between atoms: _36  and  _38
REMARK   16  A    between atoms: _38  and  _39
REMARK   17  A    between atoms: _41  and  _43
REMARK   18  A    between atoms: _43  and  _44
REMARK   19  A    between atoms: _46  and  _48
REMARK   20  A    between atoms: _48  and  _49
REMARK   21  A    between atoms: _48  and  _51
REMARK   22  A    between atoms: _51  and  _52
REMARK   23  A    between atoms: _55  and  _57
REMARK   24  A    between atoms: _57  and  _58
REMARK   25  A    between atoms: _60  and  _62
REMARK   26  A    between atoms: _62  and  _63
REMARK   27  A    between atoms: _62  and  _65
REMARK   28  A    between atoms: _65  and  _66
REMARK   29  A    between atoms: _66  and  _67
REMARK   30  A    between atoms: _67  and  _68
REMARK   31  A    between atoms: _77  and  _79
REMARK   32  A    between atoms: _79  and  _80
REMARK   33  A    between atoms: _79  and  _82
REMARK   34  A    between atoms: _82  and  _83
REMARK   35  A    between atoms: _86  and  _88
REMARK   36  A    between atoms: _88  and  _89
REMARK   37  A    between atoms: _92  and  _94
REMARK   38  A    between atoms: _94  and  _95
REMARK   39  A    between atoms: _94  and  _97
REMARK   40  A    between atoms: _97  and  _98
REMARK   41  A    between atoms: _104  and  _106
REMARK   42  A    between atoms: _106  and  _107
REMARK   43  A    between atoms: _106  and  _109
REMARK   44  A    between atoms: _109  and  _110
REMARK   45  A    between atoms: _115  and  _117
REMARK   46  A    between atoms: _117  and  _118
REMARK   47  A    between atoms: _117  and  _120
REMARK   48  A    between atoms: _120  and  _121
REMARK   49  A    between atoms: _124  and  _126
REMARK   50  A    between atoms: _126  and  _127
REMARK   51  A    between atoms: _126  and  _129
REMARK   52  A    between atoms: _129  and  _130
REMARK   53  A    between atoms: _135  and  _137
REMARK   54  A    between atoms: _137  and  _138
REMARK   55  A    between atoms: _137  and  _140
REMARK   56  A    between atoms: _140  and  _141
REMARK   57  A    between atoms: _147  and  _149
REMARK   58  A    between atoms: _149  and  _150
REMARK   59  A    between atoms: _149  and  _152
REMARK   60  A    between atoms: _152  and  _153
REMARK   61  A    between atoms: _159  and  _161
REMARK   62  A    between atoms: _161  and  _162
REMARK   63  A    between atoms: _161  and  _164
REMARK   64  A    between atoms: _164  and  _165
REMARK   65  A    between atoms: _165  and  _166
REMARK   66  A    between atoms: _166  and  _167
REMARK   67  A    between atoms: _176  and  _178
REMARK   68  A    between atoms: _178  and  _179
REMARK   69  A    between atoms: _178  and  _181
REMARK   70  A    between atoms: _181  and  _182
REMARK   71  A    between atoms: _187  and  _189
REMARK   72  A    between atoms: _189  and  _190
REMARK   73  A    between atoms: _189  and  _192
REMARK   74  A    between atoms: _192  and  _193
REMARK   75  A    between atoms: _196  and  _198
REMARK   76  A    between atoms: _198  and  _199
REMARK   77  A    between atoms: _198  and  _201
REMARK   78  A    between atoms: _201  and  _202
REMARK   79  A    between atoms: _205  and  _207
REMARK   80  A    between atoms: _207  and  _208
REMARK   81  A    between atoms: _207  and  _210
REMARK   82  A    between atoms: _210  and  _211
REMARK   83  A    between atoms: _216  and  _218
REMARK   84  A    between atoms: _218  and  _219
REMARK   85  A    between atoms: _218  and  _221
REMARK   86  A    between atoms: _221  and  _222
REMARK   87  A    between atoms: _227  and  _228
REMARK   88  A    between atoms: _230  and  _232
REMARK   89  A    between atoms: _232  and  _233
REMARK   90  A    between atoms: _232  and  _235
REMARK   91  A    between atoms: _235  and  _236
REMARK   92  A    between atoms: _239  and  _241
REMARK   93  A    between atoms: _241  and  _242
REMARK   94  A    between atoms: _241  and  _244
REMARK   95  A    between atoms: _244  and  _245
REMARK   96  A    between atoms: _250  and  _252
REMARK   97  A    between atoms: _252  and  _253
REMARK   98  A    between atoms: _252  and  _255
REMARK   99  A    between atoms: _255  and  _256
REMARK  100  A    between atoms: _261  and  _263
REMARK  101  A    between atoms: _263  and  _264
REMARK  102  A    between atoms: _263  and  _266
REMARK  103  A    between atoms: _266  and  _267
REMARK  104  A    between atoms: _270  and  _272
REMARK  105  A    between atoms: _272  and  _273
REMARK  106  A    between atoms: _272  and  _275
REMARK  107  A    between atoms: _278  and  _280
REMARK  108  A    between atoms: _280  and  _281
REMARK  109  A    between atoms: _280  and  _283
REMARK  110  A    between atoms: _283  and  _284
REMARK  111  A    between atoms: _287  and  _289
REMARK  112  A    between atoms: _289  and  _290
REMARK  113  A    between atoms: _289  and  _292
REMARK  114  A    between atoms: _292  and  _293
REMARK  115  A    between atoms: _293  and  _294
REMARK  116  A    between atoms: _297  and  _299
REMARK  117  A    between atoms: _299  and  _300
REMARK  118  A    between atoms: _303  and  _305
REMARK  119  A    between atoms: _305  and  _306
REMARK  120  A    between atoms: _305  and  _308
REMARK  121  A    between atoms: _308  and  _309
REMARK  122  A    between atoms: _312  and  _314
REMARK  123  A    between atoms: _314  and  _315
REMARK  124  A    between atoms: _314  and  _317
REMARK  125  A    between atoms: _317  and  _318
REMARK  126  A    between atoms: _318  and  _319
REMARK  127  A    between atoms: _322  and  _324
REMARK  128  A    between atoms: _324  and  _325
REMARK  129  A    between atoms: _324  and  _327
REMARK  130  A    between atoms: _327  and  _328
REMARK  131  A    between atoms: _333  and  _335
REMARK  132  A    between atoms: _335  and  _336
REMARK  133  A    between atoms: _338  and  _340
REMARK  134  A    between atoms: _340  and  _341
REMARK  135  A    between atoms: _340  and  _343
REMARK  136  A    between atoms: _346  and  _348
REMARK  137  A    between atoms: _348  and  _349
REMARK  138  A    between atoms: _352  and  _354
REMARK  139  A    between atoms: _354  and  _355
REMARK  140  A    between atoms: _354  and  _357
REMARK  141  A    between atoms: _357  and  _358
REMARK  142  A    between atoms: _363  and  _365
REMARK  143  A    between atoms: _365  and  _366
REMARK  144  A    between atoms: _365  and  _368
REMARK  145  A    between atoms: _368  and  _369
REMARK  146  A    between atoms: _369  and  _370
REMARK  147  A    between atoms: _370  and  _371
REMARK  148  A    between atoms: _371  and  _372
REMARK  149  A    between atoms: _376  and  _378
REMARK  150  A    between atoms: _378  and  _379
REMARK  151  A    between atoms: _378  and  _381
REMARK  152  A    between atoms: _381  and  _382
REMARK  153  A    between atoms: _385  and  _387
REMARK  154  A    between atoms: _387  and  _388
REMARK  155  A    between atoms: _387  and  _390
REMARK  156  A    between atoms: _390  and  _391
REMARK  157  A    between atoms: _396  and  _398
REMARK  158  A    between atoms: _398  and  _399
REMARK  159  A    between atoms: _401  and  _403
REMARK  160  A    between atoms: _403  and  _404
REMARK  161  A    between atoms: _403  and  _406
REMARK  162  A    between atoms: _406  and  _407
REMARK  163  A    between atoms: _407  and  _408
REMARK  164  A    between atoms: _408  and  _409
REMARK  165  A    between atoms: _409  and  _410
REMARK  166  A    between atoms: _414  and  _416
REMARK  167  A    between atoms: _416  and  _417
REMARK  168  A    between atoms: _416  and  _419
REMARK  169  A    between atoms: _419  and  _420
REMARK  170  A    between atoms: _420  and  _421
REMARK  171  A    between atoms: _421  and  _422
REMARK  172  A    between atoms: _431  and  _433
REMARK  173  A    between atoms: _433  and  _434
REMARK  174  A    between atoms: _433  and  _436
REMARK  175  A    between atoms: _436  and  _437
REMARK  176  A    between atoms: _442  and  _444
REMARK  177  A    between atoms: _444  and  _445
REMARK  178  A    between atoms: _444  and  _447
REMARK  179  A    between atoms: _447  and  _448
REMARK  180  A    between atoms: _453  and  _454
REMARK  181  A    between atoms: _456  and  _458
REMARK  182  A    between atoms: _458  and  _459
REMARK  183  A    between atoms: _458  and  _461
REMARK  184  A    between atoms: _461  and  _462
REMARK  185  A    between atoms: _462  and  _463
REMARK  186  A    between atoms: _463  and  _464
REMARK  187  A    between atoms: _464  and  _465
REMARK  188  A    between atoms: _469  and  _471
REMARK  189  A    between atoms: _471  and  _472
REMARK  190  A    between atoms: _471  and  _474
REMARK  191  A    between atoms: _474  and  _475
REMARK  192  A    between atoms: _477  and  _479
REMARK  193  A    between atoms: _479  and  _480
REMARK  194  A    between atoms: _479  and  _482
REMARK  195  A    between atoms: _482  and  _483
REMARK  196  A    between atoms: _486  and  _488
REMARK  197  A    between atoms: _488  and  _489
REMARK  198  A    between atoms: _488  and  _491
REMARK  199  A    between atoms: _491  and  _492
REMARK  200  A    between atoms: _492  and  _493
REMARK  201  A    between atoms: _496  and  _498
REMARK  202  A    between atoms: _498  and  _499
REMARK  203  A    between atoms: _502  and  _504
REMARK  204  A    between atoms: _504  and  _505
REMARK  205  A    between atoms: _504  and  _507
REMARK  206  A    between atoms: _507  and  _508
REMARK  207  A    between atoms: _510  and  _512
REMARK  208  A    between atoms: _512  and  _513
REMARK  209  A    between atoms: _515  and  _517
REMARK  210  A    between atoms: _517  and  _518
REMARK  211  A    between atoms: _517  and  _520
REMARK  212  A    between atoms: _520  and  _521
REMARK  213  A    between atoms: _524  and  _526
REMARK  214  A    between atoms: _526  and  _527
REMARK  215  A    between atoms: _529  and  _531
REMARK  216  A    between atoms: _531  and  _532
REMARK  217  A    between atoms: _531  and  _534
REMARK  218  A    between atoms: _534  and  _535
REMARK  219  A    between atoms: _540  and  _542
REMARK  220  A    between atoms: _542  and  _543
REMARK  221  A    between atoms: _542  and  _545
REMARK  222  A    between atoms: _545  and  _546
REMARK  223  A    between atoms: _546  and  _547
REMARK  224  A    between atoms: _554  and  _555
REMARK  225  A    between atoms: _555  and  _571
REMARK  226  A    between atoms: _556  and  _558
REMARK  227  A    between atoms: _558  and  _559
REMARK  228  A    between atoms: _559  and  _560
REMARK  229  A    between atoms: _564  and  _566
REMARK  230  A    between atoms: _566  and  _567
REMARK  231  A    between atoms: _566  and  _574
REMARK  232  A    between atoms: _567  and  _568
REMARK  233  A    between atoms: _568  and  _569
REMARK  234  A    between atoms: _569  and  _570
REMARK  235  A    between atoms: _570  and  _571
REMARK  236  A    between atoms: _576  and  _578
REMARK  237  A    between atoms: _578  and  _579
REMARK  238  A    between atoms: _578  and  _581
REMARK  239  A    between atoms: _581  and  _582
REMARK  240  A    between atoms: _585  and  _587
REMARK  241  A    between atoms: _587  and  _588
REMARK  242  A    between atoms: _590  and  _592
REMARK  243  A    between atoms: _592  and  _593
REMARK  244  A    between atoms: _596  and  _598
REMARK  245  A    between atoms: _598  and  _599
REMARK  246  A    between atoms: _598  and  _601
REMARK  247  A    between atoms: _601  and  _602
REMARK  248  A    between atoms: _607  and  _608
REMARK                            x       y       z     vdW  Elec       q    Type
REMARK                         _______ _______ _______ _____ _____    ______ ____
ROOT
ATOM      1  O   HOH     1      28.928  21.658  26.180  0.00  0.00    +0.000 OA
ENDROOT
TORSDOF 0
REMARK  Name = ../refined-set-2016/3g2i/3g2i_pocket.pdb
REMARK  248 active torsions:
REMARK  status: ('A' for Active; 'I' for Inactive)
REMARK    1  A    between atoms: _1  and  _3
REMARK    2  A    between atoms: _3  and  _4
REMARK    3  A    between atoms: _3  and  _6
REMARK    4  A    between atoms: _6  and  _7
REMARK    5  A    between atoms: _12  and  _13
REMARK    6  A    between atoms: _15  and  _17
REMARK    7  A    between atoms: _17  and  _18
REMARK    8  A    between atoms: _17  and  _20
REMARK    9  A    between atoms: _20  and  _21
REMARK   10  A    between atoms: _21  and  _22
REMARK   11  A    between atoms: _25  and  _27
REMARK   12  A    between atoms: _27  and  _28
REMARK   13  A    between atoms: _27  and  _30
REMARK   14  A    between atoms: _30  and  _31
REMARK   15  A    between atoms: _36  and  _38
REMARK   16  A    between atoms: _38  and  _39
REMARK   17  A    between atoms: _41  and  _43
REMARK   18  A    between atoms: _43  and  _44
REMARK   19  A    between atoms: _46  and  _48
REMARK   20  A    between atoms: _48  and  _49
REMARK   21  A    between atoms: _48  and  _51
REMARK   22  A    between atoms: _51  and  _52
REMARK   23  A    between atoms: _55  and  _57
REMARK   24  A    between atoms: _57  and  _58
REMARK   25  A    between atoms: _60  and  _62
REMARK   26  A    between atoms: _62  and  _63
REMARK   27  A    between atoms: _62  and  _65
REMARK   28  A    between atoms: _65  and  _66
REMARK   29  A    between atoms: _66  and  _67
REMARK   30  A    between atoms: _67  and  _68
REMARK   31  A    between atoms: _77  and  _79
REMARK   32  A    between atoms: _79  and  _80
REMARK   33  A    between atoms: _79  and  _82
REMARK   34  A    between atoms: _82  and  _83
REMARK   35  A    between atoms: _86  and  _88
REMARK   36  A    between atoms: _88  and  _89
REMARK   37  A    between atoms: _92  and  _94
REMARK   38  A    between atoms: _94  and  _95
REMARK   39  A    between atoms: _94  and  _97
REMARK   40  A    between atoms: _97  and  _98
REMARK   41  A    between atoms: _104  and  _106
REMARK   42  A    between atoms: _106  and  _107
REMARK   43  A    between atoms: _106  and  _109
REMARK   44  A    between atoms: _109  and  _110
REMARK   45  A    between atoms: _115  and  _117
REMARK   46  A    between atoms: _117  and  _118
REMARK   47  A    between atoms: _117  and  _120
REMARK   48  A    between atoms: _120  and  _121
REMARK   49  A    between atoms: _124  and  _126
REMARK   50  A    between atoms: _126  and  _127
REMARK   51  A    between atoms: _126  and  _129
REMARK   52  A    between atoms: _129  and  _130
REMARK   53  A    between atoms: _135  and  _137
REMARK   54  A    between atoms: _137  and  _138
REMARK   55  A    between atoms: _137  and  _140
REMARK   56  A    between atoms: _140  and  _141
REMARK   57  A    between atoms: _147  and  _149
REMARK   58  A    between atoms: _149  and  _150
REMARK   59  A    between atoms: _149  and  _152
REMARK   60  A    between atoms: _152  and  _153
REMARK   61  A    between atoms: _159  and  _161
REMARK   62  A    between atoms: _161  and  _162
REMARK   63  A    between atoms: _161  and  _164
REMARK   64  A    between atoms: _164  and  _165
REMARK   65  A    between atoms: _165  and  _166
REMARK   66  A    between atoms: _166  and  _167
REMARK   67  A    between atoms: _176  and  _178
REMARK   68  A    between atoms: _178  and  _179
REMARK   69  A    between atoms: _178  and  _181
REMARK   70  A    between atoms: _181  and  _182
REMARK   71  A    between atoms: _187  and  _189
REMARK   72  A    between atoms: _189  and  _190
REMARK   73  A    between atoms: _189  and  _192
REMARK   74  A    between atoms: _192  and  _193
REMARK   75  A    between atoms: _196  and  _198
REMARK   76  A    between atoms: _198  and  _199
REMARK   77  A    between atoms: _198  and  _201
REMARK   78  A    between atoms: _201  and  _202
REMARK   79  A    between atoms: _205  and  _207
REMARK   80  A    between atoms: _207  and  _208
REMARK   81  A    between atoms: _207  and  _210
REMARK   82  A    between atoms: _210  and  _211
REMARK   83  A    between atoms: _216  and  _218
REMARK   84  A    between atoms: _218  and  _219
REMARK   85  A    between atoms: _218  and  _221
REMARK   86  A    between atoms: _221  and  _222
REMARK   87  A    between atoms: _227  and  _228
REMARK   88  A    between atoms: _230  and  _232
REMARK   89  A    between atoms: _232  and  _233
REMARK   90  A    between atoms: _232  and  _235
REMARK   91  A    between atoms: _235  and  _236
REMARK   92  A    between atoms: _239  and  _241
REMARK   93  A    between atoms: _241  and  _242
REMARK   94  A    between atoms: _241  and  _244
REMARK   95  A    between atoms: _244  and  _245
REMARK   96  A    between atoms: _250  and  _252
REMARK   97  A    between atoms: _252  and  _253
REMARK   98  A    between atoms: _252  and  _255
REMARK   99  A    between atoms: _255  and  _256
REMARK  100  A    between atoms: _261  and  _263
REMARK  101  A    between atoms: _263  and  _264
REMARK  102  A    between atoms: _263  and  _266
REMARK  103  A    between atoms: _266  and  _267
REMARK  104  A    between atoms: _270  and  _272
REMARK  105  A    between atoms: _272  and  _273
REMARK  106  A    between atoms: _272  and  _275
REMARK  107  A    between atoms: _278  and  _280
REMARK  108  A    between atoms: _280  and  _281
REMARK  109  A    between atoms: _280  and  _283
REMARK  110  A    between atoms: _283  and  _284
REMARK  111  A    between atoms: _287  and  _289
REMARK  112  A    between atoms: _289  and  _290
REMARK  113  A    between atoms: _289  and  _292
REMARK  114  A    between atoms: _292  and  _293
REMARK  115  A    between atoms: _293  and  _294
REMARK  116  A    between atoms: _297  and  _299
REMARK  117  A    between atoms: _299  and  _300
REMARK  118  A    between atoms: _303  and  _305
REMARK  119  A    between atoms: _305  and  _306
REMARK  120  A    between atoms: _305  and  _308
REMARK  121  A    between atoms: _308  and  _309
REMARK  122  A    between atoms: _312  and  _314
REMARK  123  A    between atoms: _314  and  _315
REMARK  124  A    between atoms: _314  and  _317
REMARK  125  A    between atoms: _317  and  _318
REMARK  126  A    between atoms: _318  and  _319
REMARK  127  A    between atoms: _322  and  _324
REMARK  128  A    between atoms: _324  and  _325
REMARK  129  A    between atoms: _324  and  _327
REMARK  130  A    between atoms: _327  and  _328
REMARK  131  A    between atoms: _333  and  _335
REMARK  132  A    between atoms: _335  and  _336
REMARK  133  A    between atoms: _338  and  _340
REMARK  134  A    between atoms: _340  and  _341
REMARK  135  A    between atoms: _340  and  _343
REMARK  136  A    between atoms: _346  and  _348
REMARK  137  A    between atoms: _348  and  _349
REMARK  138  A    between atoms: _352  and  _354
REMARK  139  A    between atoms: _354  and  _355
REMARK  140  A    between atoms: _354  and  _357
REMARK  141  A    between atoms: _357  and  _358
REMARK  142  A    between atoms: _363  and  _365
REMARK  143  A    between atoms: _365  and  _366
REMARK  144  A    between atoms: _365  and  _368
REMARK  145  A    between atoms: _368  and  _369
REMARK  146  A    between atoms: _369  and  _370
REMARK  147  A    between atoms: _370  and  _371
REMARK  148  A    between atoms: _371  and  _372
REMARK  149  A    between atoms: _376  and  _378
REMARK  150  A    between atoms: _378  and  _379
REMARK  151  A    between atoms: _378  and  _381
REMARK  152  A    between atoms: _381  and  _382
REMARK  153  A    between atoms: _385  and  _387
REMARK  154  A    between atoms: _387  and  _388
REMARK  155  A    between atoms: _387  and  _390
REMARK  156  A    between atoms: _390  and  _391
REMARK  157  A    between atoms: _396  and  _398
REMARK  158  A    between atoms: _398  and  _399
REMARK  159  A    between atoms: _401  and  _403
REMARK  160  A    between atoms: _403  and  _404
REMARK  161  A    between atoms: _403  and  _406
REMARK  162  A    between atoms: _406  and  _407
REMARK  163  A    between atoms: _407  and  _408
REMARK  164  A    between atoms: _408  and  _409
REMARK  165  A    between atoms: _409  and  _410
REMARK  166  A    between atoms: _414  and  _416
REMARK  167  A    between atoms: _416  and  _417
REMARK  168  A    between atoms: _416  and  _419
REMARK  169  A    between atoms: _419  and  _420
REMARK  170  A    between atoms: _420  and  _421
REMARK  171  A    between atoms: _421  and  _422
REMARK  172  A    between atoms: _431  and  _433
REMARK  173  A    between atoms: _433  and  _434
REMARK  174  A    between atoms: _433  and  _436
REMARK  175  A    between atoms: _436  and  _437
REMARK  176  A    between atoms: _442  and  _444
REMARK  177  A    between atoms: _444  and  _445
REMARK  178  A    between atoms: _444  and  _447
REMARK  179  A    between atoms: _447  and  _448
REMARK  180  A    between atoms: _453  and  _454
REMARK  181  A    between atoms: _456  and  _458
REMARK  182  A    between atoms: _458  and  _459
REMARK  183  A    between atoms: _458  and  _461
REMARK  184  A    between atoms: _461  and  _462
REMARK  185  A    between atoms: _462  and  _463
REMARK  186  A    between atoms: _463  and  _464
REMARK  187  A    between atoms: _464  and  _465
REMARK  188  A    between atoms: _469  and  _471
REMARK  189  A    between atoms: _471  and  _472
REMARK  190  A    between atoms: _471  and  _474
REMARK  191  A    between atoms: _474  and  _475
REMARK  192  A    between atoms: _477  and  _479
REMARK  193  A    between atoms: _479  and  _480
REMARK  194  A    between atoms: _479  and  _482
REMARK  195  A    between atoms: _482  and  _483
REMARK  196  A    between atoms: _486  and  _488
REMARK  197  A    between atoms: _488  and  _489
REMARK  198  A    between atoms: _488  and  _491
REMARK  199  A    between atoms: _491  and  _492
REMARK  200  A    between atoms: _492  and  _493
REMARK  201  A    between atoms: _496  and  _498
REMARK  202  A    between atoms: _498  and  _499
REMARK  203  A    between atoms: _502  and  _504
REMARK  204  A    between atoms: _504  and  _505
REMARK  205  A    between atoms: _504  and  _507
REMARK  206  A    between atoms: _507  and  _508
REMARK  207  A    between atoms: _510  and  _512
REMARK  208  A    between atoms: _512  and  _513
REMARK  209  A    between atoms: _515  and  _517
REMARK  210  A    between atoms: _517  and  _518
REMARK  211  A    between atoms: _517  and  _520
REMARK  212  A    between atoms: _520  and  _521
REMARK  213  A    between atoms: _524  and  _526
REMARK  214  A    between atoms: _526  and  _527
REMARK  215  A    between atoms: _529  and  _531
REMARK  216  A    between atoms: _531  and  _532
REMARK  217  A    between atoms: _531  and  _534
REMARK  218  A    between atoms: _534  and  _535
REMARK  219  A    between atoms: _540  and  _542
REMARK  220  A    between atoms: _542  and  _543
REMARK  221  A    between atoms: _542  and  _545
REMARK  222  A    between atoms: _545  and  _546
REMARK  223  A    between atoms: _546  and  _547
REMARK  224  A    between atoms: _554  and  _555
REMARK  225  A    between atoms: _555  and  _571
REMARK  226  A    between atoms: _556  and  _558
REMARK  227  A    between atoms: _558  and  _559
REMARK  228  A    between atoms: _559  and  _560
REMARK  229  A    between atoms: _564  and  _566
REMARK  230  A    between atoms: _566  and  _567
REMARK  231  A    between atoms: _566  and  _574
REMARK  232  A    between atoms: _567  and  _568
REMARK  233  A    between atoms: _568  and  _569
REMARK  234  A    between atoms: _569  and  _570
REMARK  235  A    between atoms: _570  and  _571
REMARK  236  A    between atoms: _576  and  _578
REMARK  237  A    between atoms: _578  and  _579
REMARK  238  A    between atoms: _578  and  _581
REMARK  239  A    between atoms: _581  and  _582
REMARK  240  A    between atoms: _585  and  _587
REMARK  241  A    between atoms: _587  and  _588
REMARK  242  A    between atoms: _590  and  _592
REMARK  243  A    between atoms: _592  and  _593
REMARK  244  A    between atoms: _596  and  _598
REMARK  245  A    between atoms: _598  and  _599
REMARK  246  A    between atoms: _598  and  _601
REMARK  247  A    between atoms: _601  and  _602
REMARK  248  A    between atoms: _607  and  _608
REMARK                            x       y       z     vdW  Elec       q    Type
REMARK                         _______ _______ _______ _____ _____    ______ ____
ROOT
ATOM      1  O   HOH     1      37.781  29.315  37.189  0.00  0.00    +0.000 OA
ENDROOT
TORSDOF 0
REMARK  Name = ../refined-set-2016/3g2i/3g2i_pocket.pdb
REMARK  248 active torsions:
REMARK  status: ('A' for Active; 'I' for Inactive)
REMARK    1  A    between atoms: _1  and  _3
REMARK    2  A    between atoms: _3  and  _4
REMARK    3  A    between atoms: _3  and  _6
REMARK    4  A    between atoms: _6  and  _7
REMARK    5  A    between atoms: _12  and  _13
REMARK    6  A    between atoms: _15  and  _17
REMARK    7  A    between atoms: _17  and  _18
REMARK    8  A    between atoms: _17  and  _20
REMARK    9  A    between atoms: _20  and  _21
REMARK   10  A    between atoms: _21  and  _22
REMARK   11  A    between atoms: _25  and  _27
REMARK   12  A    between atoms: _27  and  _28
REMARK   13  A    between atoms: _27  and  _30
REMARK   14  A    between atoms: _30  and  _31
REMARK   15  A    between atoms: _36  and  _38
REMARK   16  A    between atoms: _38  and  _39
REMARK   17  A    between atoms: _41  and  _43
REMARK   18  A    between atoms: _43  and  _44
REMARK   19  A    between atoms: _46  and  _48
REMARK   20  A    between atoms: _48  and  _49
REMARK   21  A    between atoms: _48  and  _51
REMARK   22  A    between atoms: _51  and  _52
REMARK   23  A    between atoms: _55  and  _57
REMARK   24  A    between atoms: _57  and  _58
REMARK   25  A    between atoms: _60  and  _62
REMARK   26  A    between atoms: _62  and  _63
REMARK   27  A    between atoms: _62  and  _65
REMARK   28  A    between atoms: _65  and  _66
REMARK   29  A    between atoms: _66  and  _67
REMARK   30  A    between atoms: _67  and  _68
REMARK   31  A    between atoms: _77  and  _79
REMARK   32  A    between atoms: _79  and  _80
REMARK   33  A    between atoms: _79  and  _82
REMARK   34  A    between atoms: _82  and  _83
REMARK   35  A    between atoms: _86  and  _88
REMARK   36  A    between atoms: _88  and  _89
REMARK   37  A    between atoms: _92  and  _94
REMARK   38  A    between atoms: _94  and  _95
REMARK   39  A    between atoms: _94  and  _97
REMARK   40  A    between atoms: _97  and  _98
REMARK   41  A    between atoms: _104  and  _106
REMARK   42  A    between atoms: _106  and  _107
REMARK   43  A    between atoms: _106  and  _109
REMARK   44  A    between atoms: _109  and  _110
REMARK   45  A    between atoms: _115  and  _117
REMARK   46  A    between atoms: _117  and  _118
REMARK   47  A    between atoms: _117  and  _120
REMARK   48  A    between atoms: _120  and  _121
REMARK   49  A    between atoms: _124  and  _126
REMARK   50  A    between atoms: _126  and  _127
REMARK   51  A    between atoms: _126  and  _129
REMARK   52  A    between atoms: _129  and  _130
REMARK   53  A    between atoms: _135  and  _137
REMARK   54  A    between atoms: _137  and  _138
REMARK   55  A    between atoms: _137  and  _140
REMARK   56  A    between atoms: _140  and  _141
REMARK   57  A    between atoms: _147  and  _149
REMARK   58  A    between atoms: _149  and  _150
REMARK   59  A    between atoms: _149  and  _152
REMARK   60  A    between atoms: _152  and  _153
REMARK   61  A    between atoms: _159  and  _161
REMARK   62  A    between atoms: _161  and  _162
REMARK   63  A    between atoms: _161  and  _164
REMARK   64  A    between atoms: _164  and  _165
REMARK   65  A    between atoms: _165  and  _166
REMARK   66  A    between atoms: _166  and  _167
REMARK   67  A    between atoms: _176  and  _178
REMARK   68  A    between atoms: _178  and  _179
REMARK   69  A    between atoms: _178  and  _181
REMARK   70  A    between atoms: _181  and  _182
REMARK   71  A    between atoms: _187  and  _189
REMARK   72  A    between atoms: _189  and  _190
REMARK   73  A    between atoms: _189  and  _192
REMARK   74  A    between atoms: _192  and  _193
REMARK   75  A    between atoms: _196  and  _198
REMARK   76  A    between atoms: _198  and  _199
REMARK   77  A    between atoms: _198  and  _201
REMARK   78  A    between atoms: _201  and  _202
REMARK   79  A    between atoms: _205  and  _207
REMARK   80  A    between atoms: _207  and  _208
REMARK   81  A    between atoms: _207  and  _210
REMARK   82  A    between atoms: _210  and  _211
REMARK   83  A    between atoms: _216  and  _218
REMARK   84  A    between atoms: _218  and  _219
REMARK   85  A    between atoms: _218  and  _221
REMARK   86  A    between atoms: _221  and  _222
REMARK   87  A    between atoms: _227  and  _228
REMARK   88  A    between atoms: _230  and  _232
REMARK   89  A    between atoms: _232  and  _233
REMARK   90  A    between atoms: _232  and  _235
REMARK   91  A    between atoms: _235  and  _236
REMARK   92  A    between atoms: _239  and  _241
REMARK   93  A    between atoms: _241  and  _242
REMARK   94  A    between atoms: _241  and  _244
REMARK   95  A    between atoms: _244  and  _245
REMARK   96  A    between atoms: _250  and  _252
REMARK   97  A    between atoms: _252  and  _253
REMARK   98  A    between atoms: _252  and  _255
REMARK   99  A    between atoms: _255  and  _256
REMARK  100  A    between atoms: _261  and  _263
REMARK  101  A    between atoms: _263  and  _264
REMARK  102  A    between atoms: _263  and  _266
REMARK  103  A    between atoms: _266  and  _267
REMARK  104  A    between atoms: _270  and  _272
REMARK  105  A    between atoms: _272  and  _273
REMARK  106  A    between atoms: _272  and  _275
REMARK  107  A    between atoms: _278  and  _280
REMARK  108  A    between atoms: _280  and  _281
REMARK  109  A    between atoms: _280  and  _283
REMARK  110  A    between atoms: _283  and  _284
REMARK  111  A    between atoms: _287  and  _289
REMARK  112  A    between atoms: _289  and  _290
REMARK  113  A    between atoms: _289  and  _292
REMARK  114  A    between atoms: _292  and  _293
REMARK  115  A    between atoms: _293  and  _294
REMARK  116  A    between atoms: _297  and  _299
REMARK  117  A    between atoms: _299  and  _300
REMARK  118  A    between atoms: _303  and  _305
REMARK  119  A    between atoms: _305  and  _306
REMARK  120  A    between atoms: _305  and  _308
REMARK  121  A    between atoms: _308  and  _309
REMARK  122  A    between atoms: _312  and  _314
REMARK  123  A    between atoms: _314  and  _315
REMARK  124  A    between atoms: _314  and  _317
REMARK  125  A    between atoms: _317  and  _318
REMARK  126  A    between atoms: _318  and  _319
REMARK  127  A    between atoms: _322  and  _324
REMARK  128  A    between atoms: _324  and  _325
REMARK  129  A    between atoms: _324  and  _327
REMARK  130  A    between atoms: _327  and  _328
REMARK  131  A    between atoms: _333  and  _335
REMARK  132  A    between atoms: _335  and  _336
REMARK  133  A    between atoms: _338  and  _340
REMARK  134  A    between atoms: _340  and  _341
REMARK  135  A    between atoms: _340  and  _343
REMARK  136  A    between atoms: _346  and  _348
REMARK  137  A    between atoms: _348  and  _349
REMARK  138  A    between atoms: _352  and  _354
REMARK  139  A    between atoms: _354  and  _355
REMARK  140  A    between atoms: _354  and  _357
REMARK  141  A    between atoms: _357  and  _358
REMARK  142  A    between atoms: _363  and  _365
REMARK  143  A    between atoms: _365  and  _366
REMARK  144  A    between atoms: _365  and  _368
REMARK  145  A    between atoms: _368  and  _369
REMARK  146  A    between atoms: _369  and  _370
REMARK  147  A    between atoms: _370  and  _371
REMARK  148  A    between atoms: _371  and  _372
REMARK  149  A    between atoms: _376  and  _378
REMARK  150  A    between atoms: _378  and  _379
REMARK  151  A    between atoms: _378  and  _381
REMARK  152  A    between atoms: _381  and  _382
REMARK  153  A    between atoms: _385  and  _387
REMARK  154  A    between atoms: _387  and  _388
REMARK  155  A    between atoms: _387  and  _390
REMARK  156  A    between atoms: _390  and  _391
REMARK  157  A    between atoms: _396  and  _398
REMARK  158  A    between atoms: _398  and  _399
REMARK  159  A    between atoms: _401  and  _403
REMARK  160  A    between atoms: _403  and  _404
REMARK  161  A    between atoms: _403  and  _406
REMARK  162  A    between atoms: _406  and  _407
REMARK  163  A    between atoms: _407  and  _408
REMARK  164  A    between atoms: _408  and  _409
REMARK  165  A    between atoms: _409  and  _410
REMARK  166  A    between atoms: _414  and  _416
REMARK  167  A    between atoms: _416  and  _417
REMARK  168  A    between atoms: _416  and  _419
REMARK  169  A    between atoms: _419  and  _420
REMARK  170  A    between atoms: _420  and  _421
REMARK  171  A    between atoms: _421  and  _422
REMARK  172  A    between atoms: _431  and  _433
REMARK  173  A    between atoms: _433  and  _434
REMARK  174  A    between atoms: _433  and  _436
REMARK  175  A    between atoms: _436  and  _437
REMARK  176  A    between atoms: _442  and  _444
REMARK  177  A    between atoms: _444  and  _445
REMARK  178  A    between atoms: _444  and  _447
REMARK  179  A    between atoms: _447  and  _448
REMARK  180  A    between atoms: _453  and  _454
REMARK  181  A    between atoms: _456  and  _458
REMARK  182  A    between atoms: _458  and  _459
REMARK  183  A    between atoms: _458  and  _461
REMARK  184  A    between atoms: _461  and  _462
REMARK  185  A    between atoms: _462  and  _463
REMARK  186  A    between atoms: _463  and  _464
REMARK  187  A    between atoms: _464  and  _465
REMARK  188  A    between atoms: _469  and  _471
REMARK  189  A    between atoms: _471  and  _472
REMARK  190  A    between atoms: _471  and  _474
REMARK  191  A    between atoms: _474  and  _475
REMARK  192  A    between atoms: _477  and  _479
REMARK  193  A    between atoms: _479  and  _480
REMARK  194  A    between atoms: _479  and  _482
REMARK  195  A    between atoms: _482  and  _483
REMARK  196  A    between atoms: _486  and  _488
REMARK  197  A    between atoms: _488  and  _489
REMARK  198  A    between atoms: _488  and  _491
REMARK  199  A    between atoms: _491  and  _492
REMARK  200  A    between atoms: _492  and  _493
REMARK  201  A    between atoms: _496  and  _498
REMARK  202  A    between atoms: _498  and  _499
REMARK  203  A    between atoms: _502  and  _504
REMARK  204  A    between atoms: _504  and  _505
REMARK  205  A    between atoms: _504  and  _507
REMARK  206  A    between atoms: _507  and  _508
REMARK  207  A    between atoms: _510  and  _512
REMARK  208  A    between atoms: _512  and  _513
REMARK  209  A    between atoms: _515  and  _517
REMARK  210  A    between atoms: _517  and  _518
REMARK  211  A    between atoms: _517  and  _520
REMARK  212  A    between atoms: _520  and  _521
REMARK  213  A    between atoms: _524  and  _526
REMARK  214  A    between atoms: _526  and  _527
REMARK  215  A    between atoms: _529  and  _531
REMARK  216  A    between atoms: _531  and  _532
REMARK  217  A    between atoms: _531  and  _534
REMARK  218  A    between atoms: _534  and  _535
REMARK  219  A    between atoms: _540  and  _542
REMARK  220  A    between atoms: _542  and  _543
REMARK  221  A    between atoms: _542  and  _545
REMARK  222  A    between atoms: _545  and  _546
REMARK  223  A    between atoms: _546  and  _547
REMARK  224  A    between atoms: _554  and  _555
REMARK  225  A    between atoms: _555  and  _571
REMARK  226  A    between atoms: _556  and  _558
REMARK  227  A    between atoms: _558  and  _559
REMARK  228  A    between atoms: _559  and  _560
REMARK  229  A    between atoms: _564  and  _566
REMARK  230  A    between atoms: _566  and  _567
REMARK  231  A    between atoms: _566  and  _574
REMARK  232  A    between atoms: _567  and  _568
REMARK  233  A    between atoms: _568  and  _569
REMARK  234  A    between atoms: _569  and  _570
REMARK  235  A    between atoms: _570  and  _571
REMARK  236  A    between atoms: _576  and  _578
REMARK  237  A    between atoms: _578  and  _579
REMARK  238  A    between atoms: _578  and  _581
REMARK  239  A    between atoms: _581  and  _582
REMARK  240  A    between atoms: _585  and  _587
REMARK  241  A    between atoms: _587  and  _588
REMARK  242  A    between atoms: _590  and  _592
REMARK  243  A    between atoms: _592  and  _593
REMARK  244  A    between atoms: _596  and  _598
REMARK  245  A    between atoms: _598  and  _599
REMARK  246  A    between atoms: _598  and  _601
REMARK  247  A    between atoms: _601  and  _602
REMARK  248  A    between atoms: _607  and  _608
REMARK                            x       y       z     vdW  Elec       q    Type
REMARK                         _______ _______ _______ _____ _____    ______ ____
ROOT
ATOM      1  O   HOH     1      35.443  23.736  37.115  0.00  0.00    +0.000 OA
ENDROOT
TORSDOF 0
REMARK  Name = ../refined-set-2016/3g2i/3g2i_pocket.pdb
REMARK  248 active torsions:
REMARK  status: ('A' for Active; 'I' for Inactive)
REMARK    1  A    between atoms: _1  and  _3
REMARK    2  A    between atoms: _3  and  _4
REMARK    3  A    between atoms: _3  and  _6
REMARK    4  A    between atoms: _6  and  _7
REMARK    5  A    between atoms: _12  and  _13
REMARK    6  A    between atoms: _15  and  _17
REMARK    7  A    between atoms: _17  and  _18
REMARK    8  A    between atoms: _17  and  _20
REMARK    9  A    between atoms: _20  and  _21
REMARK   10  A    between atoms: _21  and  _22
REMARK   11  A    between atoms: _25  and  _27
REMARK   12  A    between atoms: _27  and  _28
REMARK   13  A    between atoms: _27  and  _30
REMARK   14  A    between atoms: _30  and  _31
REMARK   15  A    between atoms: _36  and  _38
REMARK   16  A    between atoms: _38  and  _39
REMARK   17  A    between atoms: _41  and  _43
REMARK   18  A    between atoms: _43  and  _44
REMARK   19  A    between atoms: _46  and  _48
REMARK   20  A    between atoms: _48  and  _49
REMARK   21  A    between atoms: _48  and  _51
REMARK   22  A    between atoms: _51  and  _52
REMARK   23  A    between atoms: _55  and  _57
REMARK   24  A    between atoms: _57  and  _58
REMARK   25  A    between atoms: _60  and  _62
REMARK   26  A    between atoms: _62  and  _63
REMARK   27  A    between atoms: _62  and  _65
REMARK   28  A    between atoms: _65  and  _66
REMARK   29  A    between atoms: _66  and  _67
REMARK   30  A    between atoms: _67  and  _68
REMARK   31  A    between atoms: _77  and  _79
REMARK   32  A    between atoms: _79  and  _80
REMARK   33  A    between atoms: _79  and  _82
REMARK   34  A    between atoms: _82  and  _83
REMARK   35  A    between atoms: _86  and  _88
REMARK   36  A    between atoms: _88  and  _89
REMARK   37  A    between atoms: _92  and  _94
REMARK   38  A    between atoms: _94  and  _95
REMARK   39  A    between atoms: _94  and  _97
REMARK   40  A    between atoms: _97  and  _98
REMARK   41  A    between atoms: _104  and  _106
REMARK   42  A    between atoms: _106  and  _107
REMARK   43  A    between atoms: _106  and  _109
REMARK   44  A    between atoms: _109  and  _110
REMARK   45  A    between atoms: _115  and  _117
REMARK   46  A    between atoms: _117  and  _118
REMARK   47  A    between atoms: _117  and  _120
REMARK   48  A    between atoms: _120  and  _121
REMARK   49  A    between atoms: _124  and  _126
REMARK   50  A    between atoms: _126  and  _127
REMARK   51  A    between atoms: _126  and  _129
REMARK   52  A    between atoms: _129  and  _130
REMARK   53  A    between atoms: _135  and  _137
REMARK   54  A    between atoms: _137  and  _138
REMARK   55  A    between atoms: _137  and  _140
REMARK   56  A    between atoms: _140  and  _141
REMARK   57  A    between atoms: _147  and  _149
REMARK   58  A    between atoms: _149  and  _150
REMARK   59  A    between atoms: _149  and  _152
REMARK   60  A    between atoms: _152  and  _153
REMARK   61  A    between atoms: _159  and  _161
REMARK   62  A    between atoms: _161  and  _162
REMARK   63  A    between atoms: _161  and  _164
REMARK   64  A    between atoms: _164  and  _165
REMARK   65  A    between atoms: _165  and  _166
REMARK   66  A    between atoms: _166  and  _167
REMARK   67  A    between atoms: _176  and  _178
REMARK   68  A    between atoms: _178  and  _179
REMARK   69  A    between atoms: _178  and  _181
REMARK   70  A    between atoms: _181  and  _182
REMARK   71  A    between atoms: _187  and  _189
REMARK   72  A    between atoms: _189  and  _190
REMARK   73  A    between atoms: _189  and  _192
REMARK   74  A    between atoms: _192  and  _193
REMARK   75  A    between atoms: _196  and  _198
REMARK   76  A    between atoms: _198  and  _199
REMARK   77  A    between atoms: _198  and  _201
REMARK   78  A    between atoms: _201  and  _202
REMARK   79  A    between atoms: _205  and  _207
REMARK   80  A    between atoms: _207  and  _208
REMARK   81  A    between atoms: _207  and  _210
REMARK   82  A    between atoms: _210  and  _211
REMARK   83  A    between atoms: _216  and  _218
REMARK   84  A    between atoms: _218  and  _219
REMARK   85  A    between atoms: _218  and  _221
REMARK   86  A    between atoms: _221  and  _222
REMARK   87  A    between atoms: _227  and  _228
REMARK   88  A    between atoms: _230  and  _232
REMARK   89  A    between atoms: _232  and  _233
REMARK   90  A    between atoms: _232  and  _235
REMARK   91  A    between atoms: _235  and  _236
REMARK   92  A    between atoms: _239  and  _241
REMARK   93  A    between atoms: _241  and  _242
REMARK   94  A    between atoms: _241  and  _244
REMARK   95  A    between atoms: _244  and  _245
REMARK   96  A    between atoms: _250  and  _252
REMARK   97  A    between atoms: _252  and  _253
REMARK   98  A    between atoms: _252  and  _255
REMARK   99  A    between atoms: _255  and  _256
REMARK  100  A    between atoms: _261  and  _263
REMARK  101  A    between atoms: _263  and  _264
REMARK  102  A    between atoms: _263  and  _266
REMARK  103  A    between atoms: _266  and  _267
REMARK  104  A    between atoms: _270  and  _272
REMARK  105  A    between atoms: _272  and  _273
REMARK  106  A    between atoms: _272  and  _275
REMARK  107  A    between atoms: _278  and  _280
REMARK  108  A    between atoms: _280  and  _281
REMARK  109  A    between atoms: _280  and  _283
REMARK  110  A    between atoms: _283  and  _284
REMARK  111  A    between atoms: _287  and  _289
REMARK  112  A    between atoms: _289  and  _290
REMARK  113  A    between atoms: _289  and  _292
REMARK  114  A    between atoms: _292  and  _293
REMARK  115  A    between atoms: _293  and  _294
REMARK  116  A    between atoms: _297  and  _299
REMARK  117  A    between atoms: _299  and  _300
REMARK  118  A    between atoms: _303  and  _305
REMARK  119  A    between atoms: _305  and  _306
REMARK  120  A    between atoms: _305  and  _308
REMARK  121  A    between atoms: _308  and  _309
REMARK  122  A    between atoms: _312  and  _314
REMARK  123  A    between atoms: _314  and  _315
REMARK  124  A    between atoms: _314  and  _317
REMARK  125  A    between atoms: _317  and  _318
REMARK  126  A    between atoms: _318  and  _319
REMARK  127  A    between atoms: _322  and  _324
REMARK  128  A    between atoms: _324  and  _325
REMARK  129  A    between atoms: _324  and  _327
REMARK  130  A    between atoms: _327  and  _328
REMARK  131  A    between atoms: _333  and  _335
REMARK  132  A    between atoms: _335  and  _336
REMARK  133  A    between atoms: _338  and  _340
REMARK  134  A    between atoms: _340  and  _341
REMARK  135  A    between atoms: _340  and  _343
REMARK  136  A    between atoms: _346  and  _348
REMARK  137  A    between atoms: _348  and  _349
REMARK  138  A    between atoms: _352  and  _354
REMARK  139  A    between atoms: _354  and  _355
REMARK  140  A    between atoms: _354  and  _357
REMARK  141  A    between atoms: _357  and  _358
REMARK  142  A    between atoms: _363  and  _365
REMARK  143  A    between atoms: _365  and  _366
REMARK  144  A    between atoms: _365  and  _368
REMARK  145  A    between atoms: _368  and  _369
REMARK  146  A    between atoms: _369  and  _370
REMARK  147  A    between atoms: _370  and  _371
REMARK  148  A    between atoms: _371  and  _372
REMARK  149  A    between atoms: _376  and  _378
REMARK  150  A    between atoms: _378  and  _379
REMARK  151  A    between atoms: _378  and  _381
REMARK  152  A    between atoms: _381  and  _382
REMARK  153  A    between atoms: _385  and  _387
REMARK  154  A    between atoms: _387  and  _388
REMARK  155  A    between atoms: _387  and  _390
REMARK  156  A    between atoms: _390  and  _391
REMARK  157  A    between atoms: _396  and  _398
REMARK  158  A    between atoms: _398  and  _399
REMARK  159  A    between atoms: _401  and  _403
REMARK  160  A    between atoms: _403  and  _404
REMARK  161  A    between atoms: _403  and  _406
REMARK  162  A    between atoms: _406  and  _407
REMARK  163  A    between atoms: _407  and  _408
REMARK  164  A    between atoms: _408  and  _409
REMARK  165  A    between atoms: _409  and  _410
REMARK  166  A    between atoms: _414  and  _416
REMARK  167  A    between atoms: _416  and  _417
REMARK  168  A    between atoms: _416  and  _419
REMARK  169  A    between atoms: _419  and  _420
REMARK  170  A    between atoms: _420  and  _421
REMARK  171  A    between atoms: _421  and  _422
REMARK  172  A    between atoms: _431  and  _433
REMARK  173  A    between atoms: _433  and  _434
REMARK  174  A    between atoms: _433  and  _436
REMARK  175  A    between atoms: _436  and  _437
REMARK  176  A    between atoms: _442  and  _444
REMARK  177  A    between atoms: _444  and  _445
REMARK  178  A    between atoms: _444  and  _447
REMARK  179  A    between atoms: _447  and  _448
REMARK  180  A    between atoms: _453  and  _454
REMARK  181  A    between atoms: _456  and  _458
REMARK  182  A    between atoms: _458  and  _459
REMARK  183  A    between atoms: _458  and  _461
REMARK  184  A    between atoms: _461  and  _462
REMARK  185  A    between atoms: _462  and  _463
REMARK  186  A    between atoms: _463  and  _464
REMARK  187  A    between atoms: _464  and  _465
REMARK  188  A    between atoms: _469  and  _471
REMARK  189  A    between atoms: _471  and  _472
REMARK  190  A    between atoms: _471  and  _474
REMARK  191  A    between atoms: _474  and  _475
REMARK  192  A    between atoms: _477  and  _479
REMARK  193  A    between atoms: _479  and  _480
REMARK  194  A    between atoms: _479  and  _482
REMARK  195  A    between atoms: _482  and  _483
REMARK  196  A    between atoms: _486  and  _488
REMARK  197  A    between atoms: _488  and  _489
REMARK  198  A    between atoms: _488  and  _491
REMARK  199  A    between atoms: _491  and  _492
REMARK  200  A    between atoms: _492  and  _493
REMARK  201  A    between atoms: _496  and  _498
REMARK  202  A    between atoms: _498  and  _499
REMARK  203  A    between atoms: _502  and  _504
REMARK  204  A    between atoms: _504  and  _505
REMARK  205  A    between atoms: _504  and  _507
REMARK  206  A    between atoms: _507  and  _508
REMARK  207  A    between atoms: _510  and  _512
REMARK  208  A    between atoms: _512  and  _513
REMARK  209  A    between atoms: _515  and  _517
REMARK  210  A    between atoms: _517  and  _518
REMARK  211  A    between atoms: _517  and  _520
REMARK  212  A    between atoms: _520  and  _521
REMARK  213  A    between atoms: _524  and  _526
REMARK  214  A    between atoms: _526  and  _527
REMARK  215  A    between atoms: _529  and  _531
REMARK  216  A    between atoms: _531  and  _532
REMARK  217  A    between atoms: _531  and  _534
REMARK  218  A    between atoms: _534  and  _535
REMARK  219  A    between atoms: _540  and  _542
REMARK  220  A    between atoms: _542  and  _543
REMARK  221  A    between atoms: _542  and  _545
REMARK  222  A    between atoms: _545  and  _546
REMARK  223  A    between atoms: _546  and  _547
REMARK  224  A    between atoms: _554  and  _555
REMARK  225  A    between atoms: _555  and  _571
REMARK  226  A    between atoms: _556  and  _558
REMARK  227  A    between atoms: _558  and  _559
REMARK  228  A    between atoms: _559  and  _560
REMARK  229  A    between atoms: _564  and  _566
REMARK  230  A    between atoms: _566  and  _567
REMARK  231  A    between atoms: _566  and  _574
REMARK  232  A    between atoms: _567  and  _568
REMARK  233  A    between atoms: _568  and  _569
REMARK  234  A    between atoms: _569  and  _570
REMARK  235  A    between atoms: _570  and  _571
REMARK  236  A    between atoms: _576  and  _578
REMARK  237  A    between atoms: _578  and  _579
REMARK  238  A    between atoms: _578  and  _581
REMARK  239  A    between atoms: _581  and  _582
REMARK  240  A    between atoms: _585  and  _587
REMARK  241  A    between atoms: _587  and  _588
REMARK  242  A    between atoms: _590  and  _592
REMARK  243  A    between atoms: _592  and  _593
REMARK  244  A    between atoms: _596  and  _598
REMARK  245  A    between atoms: _598  and  _599
REMARK  246  A    between atoms: _598  and  _601
REMARK  247  A    between atoms: _601  and  _602
REMARK  248  A    between atoms: _607  and  _608
REMARK                            x       y       z     vdW  Elec       q    Type
REMARK                         _______ _______ _______ _____ _____    ______ ____
ROOT
ATOM      1  O   HOH     1      42.486  20.537  29.949  0.00  0.00    +0.000 OA
ENDROOT
TORSDOF 0
REMARK  Name = ../refined-set-2016/3g2i/3g2i_pocket.pdb
REMARK  248 active torsions:
REMARK  status: ('A' for Active; 'I' for Inactive)
REMARK    1  A    between atoms: _1  and  _3
REMARK    2  A    between atoms: _3  and  _4
REMARK    3  A    between atoms: _3  and  _6
REMARK    4  A    between atoms: _6  and  _7
REMARK    5  A    between atoms: _12  and  _13
REMARK    6  A    between atoms: _15  and  _17
REMARK    7  A    between atoms: _17  and  _18
REMARK    8  A    between atoms: _17  and  _20
REMARK    9  A    between atoms: _20  and  _21
REMARK   10  A    between atoms: _21  and  _22
REMARK   11  A    between atoms: _25  and  _27
REMARK   12  A    between atoms: _27  and  _28
REMARK   13  A    between atoms: _27  and  _30
REMARK   14  A    between atoms: _30  and  _31
REMARK   15  A    between atoms: _36  and  _38
REMARK   16  A    between atoms: _38  and  _39
REMARK   17  A    between atoms: _41  and  _43
REMARK   18  A    between atoms: _43  and  _44
REMARK   19  A    between atoms: _46  and  _48
REMARK   20  A    between atoms: _48  and  _49
REMARK   21  A    between atoms: _48  and  _51
REMARK   22  A    between atoms: _51  and  _52
REMARK   23  A    between atoms: _55  and  _57
REMARK   24  A    between atoms: _57  and  _58
REMARK   25  A    between atoms: _60  and  _62
REMARK   26  A    between atoms: _62  and  _63
REMARK   27  A    between atoms: _62  and  _65
REMARK   28  A    between atoms: _65  and  _66
REMARK   29  A    between atoms: _66  and  _67
REMARK   30  A    between atoms: _67  and  _68
REMARK   31  A    between atoms: _77  and  _79
REMARK   32  A    between atoms: _79  and  _80
REMARK   33  A    between atoms: _79  and  _82
REMARK   34  A    between atoms: _82  and  _83
REMARK   35  A    between atoms: _86  and  _88
REMARK   36  A    between atoms: _88  and  _89
REMARK   37  A    between atoms: _92  and  _94
REMARK   38  A    between atoms: _94  and  _95
REMARK   39  A    between atoms: _94  and  _97
REMARK   40  A    between atoms: _97  and  _98
REMARK   41  A    between atoms: _104  and  _106
REMARK   42  A    between atoms: _106  and  _107
REMARK   43  A    between atoms: _106  and  _109
REMARK   44  A    between atoms: _109  and  _110
REMARK   45  A    between atoms: _115  and  _117
REMARK   46  A    between atoms: _117  and  _118
REMARK   47  A    between atoms: _117  and  _120
REMARK   48  A    between atoms: _120  and  _121
REMARK   49  A    between atoms: _124  and  _126
REMARK   50  A    between atoms: _126  and  _127
REMARK   51  A    between atoms: _126  and  _129
REMARK   52  A    between atoms: _129  and  _130
REMARK   53  A    between atoms: _135  and  _137
REMARK   54  A    between atoms: _137  and  _138
REMARK   55  A    between atoms: _137  and  _140
REMARK   56  A    between atoms: _140  and  _141
REMARK   57  A    between atoms: _147  and  _149
REMARK   58  A    between atoms: _149  and  _150
REMARK   59  A    between atoms: _149  and  _152
REMARK   60  A    between atoms: _152  and  _153
REMARK   61  A    between atoms: _159  and  _161
REMARK   62  A    between atoms: _161  and  _162
REMARK   63  A    between atoms: _161  and  _164
REMARK   64  A    between atoms: _164  and  _165
REMARK   65  A    between atoms: _165  and  _166
REMARK   66  A    between atoms: _166  and  _167
REMARK   67  A    between atoms: _176  and  _178
REMARK   68  A    between atoms: _178  and  _179
REMARK   69  A    between atoms: _178  and  _181
REMARK   70  A    between atoms: _181  and  _182
REMARK   71  A    between atoms: _187  and  _189
REMARK   72  A    between atoms: _189  and  _190
REMARK   73  A    between atoms: _189  and  _192
REMARK   74  A    between atoms: _192  and  _193
REMARK   75  A    between atoms: _196  and  _198
REMARK   76  A    between atoms: _198  and  _199
REMARK   77  A    between atoms: _198  and  _201
REMARK   78  A    between atoms: _201  and  _202
REMARK   79  A    between atoms: _205  and  _207
REMARK   80  A    between atoms: _207  and  _208
REMARK   81  A    between atoms: _207  and  _210
REMARK   82  A    between atoms: _210  and  _211
REMARK   83  A    between atoms: _216  and  _218
REMARK   84  A    between atoms: _218  and  _219
REMARK   85  A    between atoms: _218  and  _221
REMARK   86  A    between atoms: _221  and  _222
REMARK   87  A    between atoms: _227  and  _228
REMARK   88  A    between atoms: _230  and  _232
REMARK   89  A    between atoms: _232  and  _233
REMARK   90  A    between atoms: _232  and  _235
REMARK   91  A    between atoms: _235  and  _236
REMARK   92  A    between atoms: _239  and  _241
REMARK   93  A    between atoms: _241  and  _242
REMARK   94  A    between atoms: _241  and  _244
REMARK   95  A    between atoms: _244  and  _245
REMARK   96  A    between atoms: _250  and  _252
REMARK   97  A    between atoms: _252  and  _253
REMARK   98  A    between atoms: _252  and  _255
REMARK   99  A    between atoms: _255  and  _256
REMARK  100  A    between atoms: _261  and  _263
REMARK  101  A    between atoms: _263  and  _264
REMARK  102  A    between atoms: _263  and  _266
REMARK  103  A    between atoms: _266  and  _267
REMARK  104  A    between atoms: _270  and  _272
REMARK  105  A    between atoms: _272  and  _273
REMARK  106  A    between atoms: _272  and  _275
REMARK  107  A    between atoms: _278  and  _280
REMARK  108  A    between atoms: _280  and  _281
REMARK  109  A    between atoms: _280  and  _283
REMARK  110  A    between atoms: _283  and  _284
REMARK  111  A    between atoms: _287  and  _289
REMARK  112  A    between atoms: _289  and  _290
REMARK  113  A    between atoms: _289  and  _292
REMARK  114  A    between atoms: _292  and  _293
REMARK  115  A    between atoms: _293  and  _294
REMARK  116  A    between atoms: _297  and  _299
REMARK  117  A    between atoms: _299  and  _300
REMARK  118  A    between atoms: _303  and  _305
REMARK  119  A    between atoms: _305  and  _306
REMARK  120  A    between atoms: _305  and  _308
REMARK  121  A    between atoms: _308  and  _309
REMARK  122  A    between atoms: _312  and  _314
REMARK  123  A    between atoms: _314  and  _315
REMARK  124  A    between atoms: _314  and  _317
REMARK  125  A    between atoms: _317  and  _318
REMARK  126  A    between atoms: _318  and  _319
REMARK  127  A    between atoms: _322  and  _324
REMARK  128  A    between atoms: _324  and  _325
REMARK  129  A    between atoms: _324  and  _327
REMARK  130  A    between atoms: _327  and  _328
REMARK  131  A    between atoms: _333  and  _335
REMARK  132  A    between atoms: _335  and  _336
REMARK  133  A    between atoms: _338  and  _340
REMARK  134  A    between atoms: _340  and  _341
REMARK  135  A    between atoms: _340  and  _343
REMARK  136  A    between atoms: _346  and  _348
REMARK  137  A    between atoms: _348  and  _349
REMARK  138  A    between atoms: _352  and  _354
REMARK  139  A    between atoms: _354  and  _355
REMARK  140  A    between atoms: _354  and  _357
REMARK  141  A    between atoms: _357  and  _358
REMARK  142  A    between atoms: _363  and  _365
REMARK  143  A    between atoms: _365  and  _366
REMARK  144  A    between atoms: _365  and  _368
REMARK  145  A    between atoms: _368  and  _369
REMARK  146  A    between atoms: _369  and  _370
REMARK  147  A    between atoms: _370  and  _371
REMARK  148  A    between atoms: _371  and  _372
REMARK  149  A    between atoms: _376  and  _378
REMARK  150  A    between atoms: _378  and  _379
REMARK  151  A    between atoms: _378  and  _381
REMARK  152  A    between atoms: _381  and  _382
REMARK  153  A    between atoms: _385  and  _387
REMARK  154  A    between atoms: _387  and  _388
REMARK  155  A    between atoms: _387  and  _390
REMARK  156  A    between atoms: _390  and  _391
REMARK  157  A    between atoms: _396  and  _398
REMARK  158  A    between atoms: _398  and  _399
REMARK  159  A    between atoms: _401  and  _403
REMARK  160  A    between atoms: _403  and  _404
REMARK  161  A    between atoms: _403  and  _406
REMARK  162  A    between atoms: _406  and  _407
REMARK  163  A    between atoms: _407  and  _408
REMARK  164  A    between atoms: _408  and  _409
REMARK  165  A    between atoms: _409  and  _410
REMARK  166  A    between atoms: _414  and  _416
REMARK  167  A    between atoms: _416  and  _417
REMARK  168  A    between atoms: _416  and  _419
REMARK  169  A    between atoms: _419  and  _420
REMARK  170  A    between atoms: _420  and  _421
REMARK  171  A    between atoms: _421  and  _422
REMARK  172  A    between atoms: _431  and  _433
REMARK  173  A    between atoms: _433  and  _434
REMARK  174  A    between atoms: _433  and  _436
REMARK  175  A    between atoms: _436  and  _437
REMARK  176  A    between atoms: _442  and  _444
REMARK  177  A    between atoms: _444  and  _445
REMARK  178  A    between atoms: _444  and  _447
REMARK  179  A    between atoms: _447  and  _448
REMARK  180  A    between atoms: _453  and  _454
REMARK  181  A    between atoms: _456  and  _458
REMARK  182  A    between atoms: _458  and  _459
REMARK  183  A    between atoms: _458  and  _461
REMARK  184  A    between atoms: _461  and  _462
REMARK  185  A    between atoms: _462  and  _463
REMARK  186  A    between atoms: _463  and  _464
REMARK  187  A    between atoms: _464  and  _465
REMARK  188  A    between atoms: _469  and  _471
REMARK  189  A    between atoms: _471  and  _472
REMARK  190  A    between atoms: _471  and  _474
REMARK  191  A    between atoms: _474  and  _475
REMARK  192  A    between atoms: _477  and  _479
REMARK  193  A    between atoms: _479  and  _480
REMARK  194  A    between atoms: _479  and  _482
REMARK  195  A    between atoms: _482  and  _483
REMARK  196  A    between atoms: _486  and  _488
REMARK  197  A    between atoms: _488  and  _489
REMARK  198  A    between atoms: _488  and  _491
REMARK  199  A    between atoms: _491  and  _492
REMARK  200  A    between atoms: _492  and  _493
REMARK  201  A    between atoms: _496  and  _498
REMARK  202  A    between atoms: _498  and  _499
REMARK  203  A    between atoms: _502  and  _504
REMARK  204  A    between atoms: _504  and  _505
REMARK  205  A    between atoms: _504  and  _507
REMARK  206  A    between atoms: _507  and  _508
REMARK  207  A    between atoms: _510  and  _512
REMARK  208  A    between atoms: _512  and  _513
REMARK  209  A    between atoms: _515  and  _517
REMARK  210  A    between atoms: _517  and  _518
REMARK  211  A    between atoms: _517  and  _520
REMARK  212  A    between atoms: _520  and  _521
REMARK  213  A    between atoms: _524  and  _526
REMARK  214  A    between atoms: _526  and  _527
REMARK  215  A    between atoms: _529  and  _531
REMARK  216  A    between atoms: _531  and  _532
REMARK  217  A    between atoms: _531  and  _534
REMARK  218  A    between atoms: _534  and  _535
REMARK  219  A    between atoms: _540  and  _542
REMARK  220  A    between atoms: _542  and  _543
REMARK  221  A    between atoms: _542  and  _545
REMARK  222  A    between atoms: _545  and  _546
REMARK  223  A    between atoms: _546  and  _547
REMARK  224  A    between atoms: _554  and  _555
REMARK  225  A    between atoms: _555  and  _571
REMARK  226  A    between atoms: _556  and  _558
REMARK  227  A    between atoms: _558  and  _559
REMARK  228  A    between atoms: _559  and  _560
REMARK  229  A    between atoms: _564  and  _566
REMARK  230  A    between atoms: _566  and  _567
REMARK  231  A    between atoms: _566  and  _574
REMARK  232  A    between atoms: _567  and  _568
REMARK  233  A    between atoms: _568  and  _569
REMARK  234  A    between atoms: _569  and  _570
REMARK  235  A    between atoms: _570  and  _571
REMARK  236  A    between atoms: _576  and  _578
REMARK  237  A    between atoms: _578  and  _579
REMARK  238  A    between atoms: _578  and  _581
REMARK  239  A    between atoms: _581  and  _582
REMARK  240  A    between atoms: _585  and  _587
REMARK  241  A    between atoms: _587  and  _588
REMARK  242  A    between atoms: _590  and  _592
REMARK  243  A    between atoms: _592  and  _593
REMARK  244  A    between atoms: _596  and  _598
REMARK  245  A    between atoms: _598  and  _599
REMARK  246  A    between atoms: _598  and  _601
REMARK  247  A    between atoms: _601  and  _602
REMARK  248  A    between atoms: _607  and  _608
REMARK                            x       y       z     vdW  Elec       q    Type
REMARK                         _______ _______ _______ _____ _____    ______ ____
ROOT
ATOM      1  O   HOH     1      31.598  24.599  31.039  0.00  0.00    +0.000 OA
ENDROOT
TORSDOF 0
REMARK  Name = ../refined-set-2016/3g2i/3g2i_pocket.pdb
REMARK  248 active torsions:
REMARK  status: ('A' for Active; 'I' for Inactive)
REMARK    1  A    between atoms: _1  and  _3
REMARK    2  A    between atoms: _3  and  _4
REMARK    3  A    between atoms: _3  and  _6
REMARK    4  A    between atoms: _6  and  _7
REMARK    5  A    between atoms: _12  and  _13
REMARK    6  A    between atoms: _15  and  _17
REMARK    7  A    between atoms: _17  and  _18
REMARK    8  A    between atoms: _17  and  _20
REMARK    9  A    between atoms: _20  and  _21
REMARK   10  A    between atoms: _21  and  _22
REMARK   11  A    between atoms: _25  and  _27
REMARK   12  A    between atoms: _27  and  _28
REMARK   13  A    between atoms: _27  and  _30
REMARK   14  A    between atoms: _30  and  _31
REMARK   15  A    between atoms: _36  and  _38
REMARK   16  A    between atoms: _38  and  _39
REMARK   17  A    between atoms: _41  and  _43
REMARK   18  A    between atoms: _43  and  _44
REMARK   19  A    between atoms: _46  and  _48
REMARK   20  A    between atoms: _48  and  _49
REMARK   21  A    between atoms: _48  and  _51
REMARK   22  A    between atoms: _51  and  _52
REMARK   23  A    between atoms: _55  and  _57
REMARK   24  A    between atoms: _57  and  _58
REMARK   25  A    between atoms: _60  and  _62
REMARK   26  A    between atoms: _62  and  _63
REMARK   27  A    between atoms: _62  and  _65
REMARK   28  A    between atoms: _65  and  _66
REMARK   29  A    between atoms: _66  and  _67
REMARK   30  A    between atoms: _67  and  _68
REMARK   31  A    between atoms: _77  and  _79
REMARK   32  A    between atoms: _79  and  _80
REMARK   33  A    between atoms: _79  and  _82
REMARK   34  A    between atoms: _82  and  _83
REMARK   35  A    between atoms: _86  and  _88
REMARK   36  A    between atoms: _88  and  _89
REMARK   37  A    between atoms: _92  and  _94
REMARK   38  A    between atoms: _94  and  _95
REMARK   39  A    between atoms: _94  and  _97
REMARK   40  A    between atoms: _97  and  _98
REMARK   41  A    between atoms: _104  and  _106
REMARK   42  A    between atoms: _106  and  _107
REMARK   43  A    between atoms: _106  and  _109
REMARK   44  A    between atoms: _109  and  _110
REMARK   45  A    between atoms: _115  and  _117
REMARK   46  A    between atoms: _117  and  _118
REMARK   47  A    between atoms: _117  and  _120
REMARK   48  A    between atoms: _120  and  _121
REMARK   49  A    between atoms: _124  and  _126
REMARK   50  A    between atoms: _126  and  _127
REMARK   51  A    between atoms: _126  and  _129
REMARK   52  A    between atoms: _129  and  _130
REMARK   53  A    between atoms: _135  and  _137
REMARK   54  A    between atoms: _137  and  _138
REMARK   55  A    between atoms: _137  and  _140
REMARK   56  A    between atoms: _140  and  _141
REMARK   57  A    between atoms: _147  and  _149
REMARK   58  A    between atoms: _149  and  _150
REMARK   59  A    between atoms: _149  and  _152
REMARK   60  A    between atoms: _152  and  _153
REMARK   61  A    between atoms: _159  and  _161
REMARK   62  A    between atoms: _161  and  _162
REMARK   63  A    between atoms: _161  and  _164
REMARK   64  A    between atoms: _164  and  _165
REMARK   65  A    between atoms: _165  and  _166
REMARK   66  A    between atoms: _166  and  _167
REMARK   67  A    between atoms: _176  and  _178
REMARK   68  A    between atoms: _178  and  _179
REMARK   69  A    between atoms: _178  and  _181
REMARK   70  A    between atoms: _181  and  _182
REMARK   71  A    between atoms: _187  and  _189
REMARK   72  A    between atoms: _189  and  _190
REMARK   73  A    between atoms: _189  and  _192
REMARK   74  A    between atoms: _192  and  _193
REMARK   75  A    between atoms: _196  and  _198
REMARK   76  A    between atoms: _198  and  _199
REMARK   77  A    between atoms: _198  and  _201
REMARK   78  A    between atoms: _201  and  _202
REMARK   79  A    between atoms: _205  and  _207
REMARK   80  A    between atoms: _207  and  _208
REMARK   81  A    between atoms: _207  and  _210
REMARK   82  A    between atoms: _210  and  _211
REMARK   83  A    between atoms: _216  and  _218
REMARK   84  A    between atoms: _218  and  _219
REMARK   85  A    between atoms: _218  and  _221
REMARK   86  A    between atoms: _221  and  _222
REMARK   87  A    between atoms: _227  and  _228
REMARK   88  A    between atoms: _230  and  _232
REMARK   89  A    between atoms: _232  and  _233
REMARK   90  A    between atoms: _232  and  _235
REMARK   91  A    between atoms: _235  and  _236
REMARK   92  A    between atoms: _239  and  _241
REMARK   93  A    between atoms: _241  and  _242
REMARK   94  A    between atoms: _241  and  _244
REMARK   95  A    between atoms: _244  and  _245
REMARK   96  A    between atoms: _250  and  _252
REMARK   97  A    between atoms: _252  and  _253
REMARK   98  A    between atoms: _252  and  _255
REMARK   99  A    between atoms: _255  and  _256
REMARK  100  A    between atoms: _261  and  _263
REMARK  101  A    between atoms: _263  and  _264
REMARK  102  A    between atoms: _263  and  _266
REMARK  103  A    between atoms: _266  and  _267
REMARK  104  A    between atoms: _270  and  _272
REMARK  105  A    between atoms: _272  and  _273
REMARK  106  A    between atoms: _272  and  _275
REMARK  107  A    between atoms: _278  and  _280
REMARK  108  A    between atoms: _280  and  _281
REMARK  109  A    between atoms: _280  and  _283
REMARK  110  A    between atoms: _283  and  _284
REMARK  111  A    between atoms: _287  and  _289
REMARK  112  A    between atoms: _289  and  _290
REMARK  113  A    between atoms: _289  and  _292
REMARK  114  A    between atoms: _292  and  _293
REMARK  115  A    between atoms: _293  and  _294
REMARK  116  A    between atoms: _297  and  _299
REMARK  117  A    between atoms: _299  and  _300
REMARK  118  A    between atoms: _303  and  _305
REMARK  119  A    between atoms: _305  and  _306
REMARK  120  A    between atoms: _305  and  _308
REMARK  121  A    between atoms: _308  and  _309
REMARK  122  A    between atoms: _312  and  _314
REMARK  123  A    between atoms: _314  and  _315
REMARK  124  A    between atoms: _314  and  _317
REMARK  125  A    between atoms: _317  and  _318
REMARK  126  A    between atoms: _318  and  _319
REMARK  127  A    between atoms: _322  and  _324
REMARK  128  A    between atoms: _324  and  _325
REMARK  129  A    between atoms: _324  and  _327
REMARK  130  A    between atoms: _327  and  _328
REMARK  131  A    between atoms: _333  and  _335
REMARK  132  A    between atoms: _335  and  _336
REMARK  133  A    between atoms: _338  and  _340
REMARK  134  A    between atoms: _340  and  _341
REMARK  135  A    between atoms: _340  and  _343
REMARK  136  A    between atoms: _346  and  _348
REMARK  137  A    between atoms: _348  and  _349
REMARK  138  A    between atoms: _352  and  _354
REMARK  139  A    between atoms: _354  and  _355
REMARK  140  A    between atoms: _354  and  _357
REMARK  141  A    between atoms: _357  and  _358
REMARK  142  A    between atoms: _363  and  _365
REMARK  143  A    between atoms: _365  and  _366
REMARK  144  A    between atoms: _365  and  _368
REMARK  145  A    between atoms: _368  and  _369
REMARK  146  A    between atoms: _369  and  _370
REMARK  147  A    between atoms: _370  and  _371
REMARK  148  A    between atoms: _371  and  _372
REMARK  149  A    between atoms: _376  and  _378
REMARK  150  A    between atoms: _378  and  _379
REMARK  151  A    between atoms: _378  and  _381
REMARK  152  A    between atoms: _381  and  _382
REMARK  153  A    between atoms: _385  and  _387
REMARK  154  A    between atoms: _387  and  _388
REMARK  155  A    between atoms: _387  and  _390
REMARK  156  A    between atoms: _390  and  _391
REMARK  157  A    between atoms: _396  and  _398
REMARK  158  A    between atoms: _398  and  _399
REMARK  159  A    between atoms: _401  and  _403
REMARK  160  A    between atoms: _403  and  _404
REMARK  161  A    between atoms: _403  and  _406
REMARK  162  A    between atoms: _406  and  _407
REMARK  163  A    between atoms: _407  and  _408
REMARK  164  A    between atoms: _408  and  _409
REMARK  165  A    between atoms: _409  and  _410
REMARK  166  A    between atoms: _414  and  _416
REMARK  167  A    between atoms: _416  and  _417
REMARK  168  A    between atoms: _416  and  _419
REMARK  169  A    between atoms: _419  and  _420
REMARK  170  A    between atoms: _420  and  _421
REMARK  171  A    between atoms: _421  and  _422
REMARK  172  A    between atoms: _431  and  _433
REMARK  173  A    between atoms: _433  and  _434
REMARK  174  A    between atoms: _433  and  _436
REMARK  175  A    between atoms: _436  and  _437
REMARK  176  A    between atoms: _442  and  _444
REMARK  177  A    between atoms: _444  and  _445
REMARK  178  A    between atoms: _444  and  _447
REMARK  179  A    between atoms: _447  and  _448
REMARK  180  A    between atoms: _453  and  _454
REMARK  181  A    between atoms: _456  and  _458
REMARK  182  A    between atoms: _458  and  _459
REMARK  183  A    between atoms: _458  and  _461
REMARK  184  A    between atoms: _461  and  _462
REMARK  185  A    between atoms: _462  and  _463
REMARK  186  A    between atoms: _463  and  _464
REMARK  187  A    between atoms: _464  and  _465
REMARK  188  A    between atoms: _469  and  _471
REMARK  189  A    between atoms: _471  and  _472
REMARK  190  A    between atoms: _471  and  _474
REMARK  191  A    between atoms: _474  and  _475
REMARK  192  A    between atoms: _477  and  _479
REMARK  193  A    between atoms: _479  and  _480
REMARK  194  A    between atoms: _479  and  _482
REMARK  195  A    between atoms: _482  and  _483
REMARK  196  A    between atoms: _486  and  _488
REMARK  197  A    between atoms: _488  and  _489
REMARK  198  A    between atoms: _488  and  _491
REMARK  199  A    between atoms: _491  and  _492
REMARK  200  A    between atoms: _492  and  _493
REMARK  201  A    between atoms: _496  and  _498
REMARK  202  A    between atoms: _498  and  _499
REMARK  203  A    between atoms: _502  and  _504
REMARK  204  A    between atoms: _504  and  _505
REMARK  205  A    between atoms: _504  and  _507
REMARK  206  A    between atoms: _507  and  _508
REMARK  207  A    between atoms: _510  and  _512
REMARK  208  A    between atoms: _512  and  _513
REMARK  209  A    between atoms: _515  and  _517
REMARK  210  A    between atoms: _517  and  _518
REMARK  211  A    between atoms: _517  and  _520
REMARK  212  A    between atoms: _520  and  _521
REMARK  213  A    between atoms: _524  and  _526
REMARK  214  A    between atoms: _526  and  _527
REMARK  215  A    between atoms: _529  and  _531
REMARK  216  A    between atoms: _531  and  _532
REMARK  217  A    between atoms: _531  and  _534
REMARK  218  A    between atoms: _534  and  _535
REMARK  219  A    between atoms: _540  and  _542
REMARK  220  A    between atoms: _542  and  _543
REMARK  221  A    between atoms: _542  and  _545
REMARK  222  A    between atoms: _545  and  _546
REMARK  223  A    between atoms: _546  and  _547
REMARK  224  A    between atoms: _554  and  _555
REMARK  225  A    between atoms: _555  and  _571
REMARK  226  A    between atoms: _556  and  _558
REMARK  227  A    between atoms: _558  and  _559
REMARK  228  A    between atoms: _559  and  _560
REMARK  229  A    between atoms: _564  and  _566
REMARK  230  A    between atoms: _566  and  _567
REMARK  231  A    between atoms: _566  and  _574
REMARK  232  A    between atoms: _567  and  _568
REMARK  233  A    between atoms: _568  and  _569
REMARK  234  A    between atoms: _569  and  _570
REMARK  235  A    between atoms: _570  and  _571
REMARK  236  A    between atoms: _576  and  _578
REMARK  237  A    between atoms: _578  and  _579
REMARK  238  A    between atoms: _578  and  _581
REMARK  239  A    between atoms: _581  and  _582
REMARK  240  A    between atoms: _585  and  _587
REMARK  241  A    between atoms: _587  and  _588
REMARK  242  A    between atoms: _590  and  _592
REMARK  243  A    between atoms: _592  and  _593
REMARK  244  A    between atoms: _596  and  _598
REMARK  245  A    between atoms: _598  and  _599
REMARK  246  A    between atoms: _598  and  _601
REMARK  247  A    between atoms: _601  and  _602
REMARK  248  A    between atoms: _607  and  _608
REMARK                            x       y       z     vdW  Elec       q    Type
REMARK                         _______ _______ _______ _____ _____    ______ ____
ROOT
ATOM      1  O   HOH     1      35.791  24.541  23.982  0.00  0.00    +0.000 OA
ENDROOT
TORSDOF 0
REMARK  Name = ../refined-set-2016/3g2i/3g2i_pocket.pdb
REMARK  248 active torsions:
REMARK  status: ('A' for Active; 'I' for Inactive)
REMARK    1  A    between atoms: _1  and  _3
REMARK    2  A    between atoms: _3  and  _4
REMARK    3  A    between atoms: _3  and  _6
REMARK    4  A    between atoms: _6  and  _7
REMARK    5  A    between atoms: _12  and  _13
REMARK    6  A    between atoms: _15  and  _17
REMARK    7  A    between atoms: _17  and  _18
REMARK    8  A    between atoms: _17  and  _20
REMARK    9  A    between atoms: _20  and  _21
REMARK   10  A    between atoms: _21  and  _22
REMARK   11  A    between atoms: _25  and  _27
REMARK   12  A    between atoms: _27  and  _28
REMARK   13  A    between atoms: _27  and  _30
REMARK   14  A    between atoms: _30  and  _31
REMARK   15  A    between atoms: _36  and  _38
REMARK   16  A    between atoms: _38  and  _39
REMARK   17  A    between atoms: _41  and  _43
REMARK   18  A    between atoms: _43  and  _44
REMARK   19  A    between atoms: _46  and  _48
REMARK   20  A    between atoms: _48  and  _49
REMARK   21  A    between atoms: _48  and  _51
REMARK   22  A    between atoms: _51  and  _52
REMARK   23  A    between atoms: _55  and  _57
REMARK   24  A    between atoms: _57  and  _58
REMARK   25  A    between atoms: _60  and  _62
REMARK   26  A    between atoms: _62  and  _63
REMARK   27  A    between atoms: _62  and  _65
REMARK   28  A    between atoms: _65  and  _66
REMARK   29  A    between atoms: _66  and  _67
REMARK   30  A    between atoms: _67  and  _68
REMARK   31  A    between atoms: _77  and  _79
REMARK   32  A    between atoms: _79  and  _80
REMARK   33  A    between atoms: _79  and  _82
REMARK   34  A    between atoms: _82  and  _83
REMARK   35  A    between atoms: _86  and  _88
REMARK   36  A    between atoms: _88  and  _89
REMARK   37  A    between atoms: _92  and  _94
REMARK   38  A    between atoms: _94  and  _95
REMARK   39  A    between atoms: _94  and  _97
REMARK   40  A    between atoms: _97  and  _98
REMARK   41  A    between atoms: _104  and  _106
REMARK   42  A    between atoms: _106  and  _107
REMARK   43  A    between atoms: _106  and  _109
REMARK   44  A    between atoms: _109  and  _110
REMARK   45  A    between atoms: _115  and  _117
REMARK   46  A    between atoms: _117  and  _118
REMARK   47  A    between atoms: _117  and  _120
REMARK   48  A    between atoms: _120  and  _121
REMARK   49  A    between atoms: _124  and  _126
REMARK   50  A    between atoms: _126  and  _127
REMARK   51  A    between atoms: _126  and  _129
REMARK   52  A    between atoms: _129  and  _130
REMARK   53  A    between atoms: _135  and  _137
REMARK   54  A    between atoms: _137  and  _138
REMARK   55  A    between atoms: _137  and  _140
REMARK   56  A    between atoms: _140  and  _141
REMARK   57  A    between atoms: _147  and  _149
REMARK   58  A    between atoms: _149  and  _150
REMARK   59  A    between atoms: _149  and  _152
REMARK   60  A    between atoms: _152  and  _153
REMARK   61  A    between atoms: _159  and  _161
REMARK   62  A    between atoms: _161  and  _162
REMARK   63  A    between atoms: _161  and  _164
REMARK   64  A    between atoms: _164  and  _165
REMARK   65  A    between atoms: _165  and  _166
REMARK   66  A    between atoms: _166  and  _167
REMARK   67  A    between atoms: _176  and  _178
REMARK   68  A    between atoms: _178  and  _179
REMARK   69  A    between atoms: _178  and  _181
REMARK   70  A    between atoms: _181  and  _182
REMARK   71  A    between atoms: _187  and  _189
REMARK   72  A    between atoms: _189  and  _190
REMARK   73  A    between atoms: _189  and  _192
REMARK   74  A    between atoms: _192  and  _193
REMARK   75  A    between atoms: _196  and  _198
REMARK   76  A    between atoms: _198  and  _199
REMARK   77  A    between atoms: _198  and  _201
REMARK   78  A    between atoms: _201  and  _202
REMARK   79  A    between atoms: _205  and  _207
REMARK   80  A    between atoms: _207  and  _208
REMARK   81  A    between atoms: _207  and  _210
REMARK   82  A    between atoms: _210  and  _211
REMARK   83  A    between atoms: _216  and  _218
REMARK   84  A    between atoms: _218  and  _219
REMARK   85  A    between atoms: _218  and  _221
REMARK   86  A    between atoms: _221  and  _222
REMARK   87  A    between atoms: _227  and  _228
REMARK   88  A    between atoms: _230  and  _232
REMARK   89  A    between atoms: _232  and  _233
REMARK   90  A    between atoms: _232  and  _235
REMARK   91  A    between atoms: _235  and  _236
REMARK   92  A    between atoms: _239  and  _241
REMARK   93  A    between atoms: _241  and  _242
REMARK   94  A    between atoms: _241  and  _244
REMARK   95  A    between atoms: _244  and  _245
REMARK   96  A    between atoms: _250  and  _252
REMARK   97  A    between atoms: _252  and  _253
REMARK   98  A    between atoms: _252  and  _255
REMARK   99  A    between atoms: _255  and  _256
REMARK  100  A    between atoms: _261  and  _263
REMARK  101  A    between atoms: _263  and  _264
REMARK  102  A    between atoms: _263  and  _266
REMARK  103  A    between atoms: _266  and  _267
REMARK  104  A    between atoms: _270  and  _272
REMARK  105  A    between atoms: _272  and  _273
REMARK  106  A    between atoms: _272  and  _275
REMARK  107  A    between atoms: _278  and  _280
REMARK  108  A    between atoms: _280  and  _281
REMARK  109  A    between atoms: _280  and  _283
REMARK  110  A    between atoms: _283  and  _284
REMARK  111  A    between atoms: _287  and  _289
REMARK  112  A    between atoms: _289  and  _290
REMARK  113  A    between atoms: _289  and  _292
REMARK  114  A    between atoms: _292  and  _293
REMARK  115  A    between atoms: _293  and  _294
REMARK  116  A    between atoms: _297  and  _299
REMARK  117  A    between atoms: _299  and  _300
REMARK  118  A    between atoms: _303  and  _305
REMARK  119  A    between atoms: _305  and  _306
REMARK  120  A    between atoms: _305  and  _308
REMARK  121  A    between atoms: _308  and  _309
REMARK  122  A    between atoms: _312  and  _314
REMARK  123  A    between atoms: _314  and  _315
REMARK  124  A    between atoms: _314  and  _317
REMARK  125  A    between atoms: _317  and  _318
REMARK  126  A    between atoms: _318  and  _319
REMARK  127  A    between atoms: _322  and  _324
REMARK  128  A    between atoms: _324  and  _325
REMARK  129  A    between atoms: _324  and  _327
REMARK  130  A    between atoms: _327  and  _328
REMARK  131  A    between atoms: _333  and  _335
REMARK  132  A    between atoms: _335  and  _336
REMARK  133  A    between atoms: _338  and  _340
REMARK  134  A    between atoms: _340  and  _341
REMARK  135  A    between atoms: _340  and  _343
REMARK  136  A    between atoms: _346  and  _348
REMARK  137  A    between atoms: _348  and  _349
REMARK  138  A    between atoms: _352  and  _354
REMARK  139  A    between atoms: _354  and  _355
REMARK  140  A    between atoms: _354  and  _357
REMARK  141  A    between atoms: _357  and  _358
REMARK  142  A    between atoms: _363  and  _365
REMARK  143  A    between atoms: _365  and  _366
REMARK  144  A    between atoms: _365  and  _368
REMARK  145  A    between atoms: _368  and  _369
REMARK  146  A    between atoms: _369  and  _370
REMARK  147  A    between atoms: _370  and  _371
REMARK  148  A    between atoms: _371  and  _372
REMARK  149  A    between atoms: _376  and  _378
REMARK  150  A    between atoms: _378  and  _379
REMARK  151  A    between atoms: _378  and  _381
REMARK  152  A    between atoms: _381  and  _382
REMARK  153  A    between atoms: _385  and  _387
REMARK  154  A    between atoms: _387  and  _388
REMARK  155  A    between atoms: _387  and  _390
REMARK  156  A    between atoms: _390  and  _391
REMARK  157  A    between atoms: _396  and  _398
REMARK  158  A    between atoms: _398  and  _399
REMARK  159  A    between atoms: _401  and  _403
REMARK  160  A    between atoms: _403  and  _404
REMARK  161  A    between atoms: _403  and  _406
REMARK  162  A    between atoms: _406  and  _407
REMARK  163  A    between atoms: _407  and  _408
REMARK  164  A    between atoms: _408  and  _409
REMARK  165  A    between atoms: _409  and  _410
REMARK  166  A    between atoms: _414  and  _416
REMARK  167  A    between atoms: _416  and  _417
REMARK  168  A    between atoms: _416  and  _419
REMARK  169  A    between atoms: _419  and  _420
REMARK  170  A    between atoms: _420  and  _421
REMARK  171  A    between atoms: _421  and  _422
REMARK  172  A    between atoms: _431  and  _433
REMARK  173  A    between atoms: _433  and  _434
REMARK  174  A    between atoms: _433  and  _436
REMARK  175  A    between atoms: _436  and  _437
REMARK  176  A    between atoms: _442  and  _444
REMARK  177  A    between atoms: _444  and  _445
REMARK  178  A    between atoms: _444  and  _447
REMARK  179  A    between atoms: _447  and  _448
REMARK  180  A    between atoms: _453  and  _454
REMARK  181  A    between atoms: _456  and  _458
REMARK  182  A    between atoms: _458  and  _459
REMARK  183  A    between atoms: _458  and  _461
REMARK  184  A    between atoms: _461  and  _462
REMARK  185  A    between atoms: _462  and  _463
REMARK  186  A    between atoms: _463  and  _464
REMARK  187  A    between atoms: _464  and  _465
REMARK  188  A    between atoms: _469  and  _471
REMARK  189  A    between atoms: _471  and  _472
REMARK  190  A    between atoms: _471  and  _474
REMARK  191  A    between atoms: _474  and  _475
REMARK  192  A    between atoms: _477  and  _479
REMARK  193  A    between atoms: _479  and  _480
REMARK  194  A    between atoms: _479  and  _482
REMARK  195  A    between atoms: _482  and  _483
REMARK  196  A    between atoms: _486  and  _488
REMARK  197  A    between atoms: _488  and  _489
REMARK  198  A    between atoms: _488  and  _491
REMARK  199  A    between atoms: _491  and  _492
REMARK  200  A    between atoms: _492  and  _493
REMARK  201  A    between atoms: _496  and  _498
REMARK  202  A    between atoms: _498  and  _499
REMARK  203  A    between atoms: _502  and  _504
REMARK  204  A    between atoms: _504  and  _505
REMARK  205  A    between atoms: _504  and  _507
REMARK  206  A    between atoms: _507  and  _508
REMARK  207  A    between atoms: _510  and  _512
REMARK  208  A    between atoms: _512  and  _513
REMARK  209  A    between atoms: _515  and  _517
REMARK  210  A    between atoms: _517  and  _518
REMARK  211  A    between atoms: _517  and  _520
REMARK  212  A    between atoms: _520  and  _521
REMARK  213  A    between atoms: _524  and  _526
REMARK  214  A    between atoms: _526  and  _527
REMARK  215  A    between atoms: _529  and  _531
REMARK  216  A    between atoms: _531  and  _532
REMARK  217  A    between atoms: _531  and  _534
REMARK  218  A    between atoms: _534  and  _535
REMARK  219  A    between atoms: _540  and  _542
REMARK  220  A    between atoms: _542  and  _543
REMARK  221  A    between atoms: _542  and  _545
REMARK  222  A    between atoms: _545  and  _546
REMARK  223  A    between atoms: _546  and  _547
REMARK  224  A    between atoms: _554  and  _555
REMARK  225  A    between atoms: _555  and  _571
REMARK  226  A    between atoms: _556  and  _558
REMARK  227  A    between atoms: _558  and  _559
REMARK  228  A    between atoms: _559  and  _560
REMARK  229  A    between atoms: _564  and  _566
REMARK  230  A    between atoms: _566  and  _567
REMARK  231  A    between atoms: _566  and  _574
REMARK  232  A    between atoms: _567  and  _568
REMARK  233  A    between atoms: _568  and  _569
REMARK  234  A    between atoms: _569  and  _570
REMARK  235  A    between atoms: _570  and  _571
REMARK  236  A    between atoms: _576  and  _578
REMARK  237  A    between atoms: _578  and  _579
REMARK  238  A    between atoms: _578  and  _581
REMARK  239  A    between atoms: _581  and  _582
REMARK  240  A    between atoms: _585  and  _587
REMARK  241  A    between atoms: _587  and  _588
REMARK  242  A    between atoms: _590  and  _592
REMARK  243  A    between atoms: _592  and  _593
REMARK  244  A    between atoms: _596  and  _598
REMARK  245  A    between atoms: _598  and  _599
REMARK  246  A    between atoms: _598  and  _601
REMARK  247  A    between atoms: _601  and  _602
REMARK  248  A    between atoms: _607  and  _608
REMARK                            x       y       z     vdW  Elec       q    Type
REMARK                         _______ _______ _______ _____ _____    ______ ____
ROOT
ATOM      1  O   HOH     1      38.613  22.722  19.710  0.00  0.00    +0.000 OA
ENDROOT
TORSDOF 0
REMARK  Name = ../refined-set-2016/3g2i/3g2i_pocket.pdb
REMARK  248 active torsions:
REMARK  status: ('A' for Active; 'I' for Inactive)
REMARK    1  A    between atoms: _1  and  _3
REMARK    2  A    between atoms: _3  and  _4
REMARK    3  A    between atoms: _3  and  _6
REMARK    4  A    between atoms: _6  and  _7
REMARK    5  A    between atoms: _12  and  _13
REMARK    6  A    between atoms: _15  and  _17
REMARK    7  A    between atoms: _17  and  _18
REMARK    8  A    between atoms: _17  and  _20
REMARK    9  A    between atoms: _20  and  _21
REMARK   10  A    between atoms: _21  and  _22
REMARK   11  A    between atoms: _25  and  _27
REMARK   12  A    between atoms: _27  and  _28
REMARK   13  A    between atoms: _27  and  _30
REMARK   14  A    between atoms: _30  and  _31
REMARK   15  A    between atoms: _36  and  _38
REMARK   16  A    between atoms: _38  and  _39
REMARK   17  A    between atoms: _41  and  _43
REMARK   18  A    between atoms: _43  and  _44
REMARK   19  A    between atoms: _46  and  _48
REMARK   20  A    between atoms: _48  and  _49
REMARK   21  A    between atoms: _48  and  _51
REMARK   22  A    between atoms: _51  and  _52
REMARK   23  A    between atoms: _55  and  _57
REMARK   24  A    between atoms: _57  and  _58
REMARK   25  A    between atoms: _60  and  _62
REMARK   26  A    between atoms: _62  and  _63
REMARK   27  A    between atoms: _62  and  _65
REMARK   28  A    between atoms: _65  and  _66
REMARK   29  A    between atoms: _66  and  _67
REMARK   30  A    between atoms: _67  and  _68
REMARK   31  A    between atoms: _77  and  _79
REMARK   32  A    between atoms: _79  and  _80
REMARK   33  A    between atoms: _79  and  _82
REMARK   34  A    between atoms: _82  and  _83
REMARK   35  A    between atoms: _86  and  _88
REMARK   36  A    between atoms: _88  and  _89
REMARK   37  A    between atoms: _92  and  _94
REMARK   38  A    between atoms: _94  and  _95
REMARK   39  A    between atoms: _94  and  _97
REMARK   40  A    between atoms: _97  and  _98
REMARK   41  A    between atoms: _104  and  _106
REMARK   42  A    between atoms: _106  and  _107
REMARK   43  A    between atoms: _106  and  _109
REMARK   44  A    between atoms: _109  and  _110
REMARK   45  A    between atoms: _115  and  _117
REMARK   46  A    between atoms: _117  and  _118
REMARK   47  A    between atoms: _117  and  _120
REMARK   48  A    between atoms: _120  and  _121
REMARK   49  A    between atoms: _124  and  _126
REMARK   50  A    between atoms: _126  and  _127
REMARK   51  A    between atoms: _126  and  _129
REMARK   52  A    between atoms: _129  and  _130
REMARK   53  A    between atoms: _135  and  _137
REMARK   54  A    between atoms: _137  and  _138
REMARK   55  A    between atoms: _137  and  _140
REMARK   56  A    between atoms: _140  and  _141
REMARK   57  A    between atoms: _147  and  _149
REMARK   58  A    between atoms: _149  and  _150
REMARK   59  A    between atoms: _149  and  _152
REMARK   60  A    between atoms: _152  and  _153
REMARK   61  A    between atoms: _159  and  _161
REMARK   62  A    between atoms: _161  and  _162
REMARK   63  A    between atoms: _161  and  _164
REMARK   64  A    between atoms: _164  and  _165
REMARK   65  A    between atoms: _165  and  _166
REMARK   66  A    between atoms: _166  and  _167
REMARK   67  A    between atoms: _176  and  _178
REMARK   68  A    between atoms: _178  and  _179
REMARK   69  A    between atoms: _178  and  _181
REMARK   70  A    between atoms: _181  and  _182
REMARK   71  A    between atoms: _187  and  _189
REMARK   72  A    between atoms: _189  and  _190
REMARK   73  A    between atoms: _189  and  _192
REMARK   74  A    between atoms: _192  and  _193
REMARK   75  A    between atoms: _196  and  _198
REMARK   76  A    between atoms: _198  and  _199
REMARK   77  A    between atoms: _198  and  _201
REMARK   78  A    between atoms: _201  and  _202
REMARK   79  A    between atoms: _205  and  _207
REMARK   80  A    between atoms: _207  and  _208
REMARK   81  A    between atoms: _207  and  _210
REMARK   82  A    between atoms: _210  and  _211
REMARK   83  A    between atoms: _216  and  _218
REMARK   84  A    between atoms: _218  and  _219
REMARK   85  A    between atoms: _218  and  _221
REMARK   86  A    between atoms: _221  and  _222
REMARK   87  A    between atoms: _227  and  _228
REMARK   88  A    between atoms: _230  and  _232
REMARK   89  A    between atoms: _232  and  _233
REMARK   90  A    between atoms: _232  and  _235
REMARK   91  A    between atoms: _235  and  _236
REMARK   92  A    between atoms: _239  and  _241
REMARK   93  A    between atoms: _241  and  _242
REMARK   94  A    between atoms: _241  and  _244
REMARK   95  A    between atoms: _244  and  _245
REMARK   96  A    between atoms: _250  and  _252
REMARK   97  A    between atoms: _252  and  _253
REMARK   98  A    between atoms: _252  and  _255
REMARK   99  A    between atoms: _255  and  _256
REMARK  100  A    between atoms: _261  and  _263
REMARK  101  A    between atoms: _263  and  _264
REMARK  102  A    between atoms: _263  and  _266
REMARK  103  A    between atoms: _266  and  _267
REMARK  104  A    between atoms: _270  and  _272
REMARK  105  A    between atoms: _272  and  _273
REMARK  106  A    between atoms: _272  and  _275
REMARK  107  A    between atoms: _278  and  _280
REMARK  108  A    between atoms: _280  and  _281
REMARK  109  A    between atoms: _280  and  _283
REMARK  110  A    between atoms: _283  and  _284
REMARK  111  A    between atoms: _287  and  _289
REMARK  112  A    between atoms: _289  and  _290
REMARK  113  A    between atoms: _289  and  _292
REMARK  114  A    between atoms: _292  and  _293
REMARK  115  A    between atoms: _293  and  _294
REMARK  116  A    between atoms: _297  and  _299
REMARK  117  A    between atoms: _299  and  _300
REMARK  118  A    between atoms: _303  and  _305
REMARK  119  A    between atoms: _305  and  _306
REMARK  120  A    between atoms: _305  and  _308
REMARK  121  A    between atoms: _308  and  _309
REMARK  122  A    between atoms: _312  and  _314
REMARK  123  A    between atoms: _314  and  _315
REMARK  124  A    between atoms: _314  and  _317
REMARK  125  A    between atoms: _317  and  _318
REMARK  126  A    between atoms: _318  and  _319
REMARK  127  A    between atoms: _322  and  _324
REMARK  128  A    between atoms: _324  and  _325
REMARK  129  A    between atoms: _324  and  _327
REMARK  130  A    between atoms: _327  and  _328
REMARK  131  A    between atoms: _333  and  _335
REMARK  132  A    between atoms: _335  and  _336
REMARK  133  A    between atoms: _338  and  _340
REMARK  134  A    between atoms: _340  and  _341
REMARK  135  A    between atoms: _340  and  _343
REMARK  136  A    between atoms: _346  and  _348
REMARK  137  A    between atoms: _348  and  _349
REMARK  138  A    between atoms: _352  and  _354
REMARK  139  A    between atoms: _354  and  _355
REMARK  140  A    between atoms: _354  and  _357
REMARK  141  A    between atoms: _357  and  _358
REMARK  142  A    between atoms: _363  and  _365
REMARK  143  A    between atoms: _365  and  _366
REMARK  144  A    between atoms: _365  and  _368
REMARK  145  A    between atoms: _368  and  _369
REMARK  146  A    between atoms: _369  and  _370
REMARK  147  A    between atoms: _370  and  _371
REMARK  148  A    between atoms: _371  and  _372
REMARK  149  A    between atoms: _376  and  _378
REMARK  150  A    between atoms: _378  and  _379
REMARK  151  A    between atoms: _378  and  _381
REMARK  152  A    between atoms: _381  and  _382
REMARK  153  A    between atoms: _385  and  _387
REMARK  154  A    between atoms: _387  and  _388
REMARK  155  A    between atoms: _387  and  _390
REMARK  156  A    between atoms: _390  and  _391
REMARK  157  A    between atoms: _396  and  _398
REMARK  158  A    between atoms: _398  and  _399
REMARK  159  A    between atoms: _401  and  _403
REMARK  160  A    between atoms: _403  and  _404
REMARK  161  A    between atoms: _403  and  _406
REMARK  162  A    between atoms: _406  and  _407
REMARK  163  A    between atoms: _407  and  _408
REMARK  164  A    between atoms: _408  and  _409
REMARK  165  A    between atoms: _409  and  _410
REMARK  166  A    between atoms: _414  and  _416
REMARK  167  A    between atoms: _416  and  _417
REMARK  168  A    between atoms: _416  and  _419
REMARK  169  A    between atoms: _419  and  _420
REMARK  170  A    between atoms: _420  and  _421
REMARK  171  A    between atoms: _421  and  _422
REMARK  172  A    between atoms: _431  and  _433
REMARK  173  A    between atoms: _433  and  _434
REMARK  174  A    between atoms: _433  and  _436
REMARK  175  A    between atoms: _436  and  _437
REMARK  176  A    between atoms: _442  and  _444
REMARK  177  A    between atoms: _444  and  _445
REMARK  178  A    between atoms: _444  and  _447
REMARK  179  A    between atoms: _447  and  _448
REMARK  180  A    between atoms: _453  and  _454
REMARK  181  A    between atoms: _456  and  _458
REMARK  182  A    between atoms: _458  and  _459
REMARK  183  A    between atoms: _458  and  _461
REMARK  184  A    between atoms: _461  and  _462
REMARK  185  A    between atoms: _462  and  _463
REMARK  186  A    between atoms: _463  and  _464
REMARK  187  A    between atoms: _464  and  _465
REMARK  188  A    between atoms: _469  and  _471
REMARK  189  A    between atoms: _471  and  _472
REMARK  190  A    between atoms: _471  and  _474
REMARK  191  A    between atoms: _474  and  _475
REMARK  192  A    between atoms: _477  and  _479
REMARK  193  A    between atoms: _479  and  _480
REMARK  194  A    between atoms: _479  and  _482
REMARK  195  A    between atoms: _482  and  _483
REMARK  196  A    between atoms: _486  and  _488
REMARK  197  A    between atoms: _488  and  _489
REMARK  198  A    between atoms: _488  and  _491
REMARK  199  A    between atoms: _491  and  _492
REMARK  200  A    between atoms: _492  and  _493
REMARK  201  A    between atoms: _496  and  _498
REMARK  202  A    between atoms: _498  and  _499
REMARK  203  A    between atoms: _502  and  _504
REMARK  204  A    between atoms: _504  and  _505
REMARK  205  A    between atoms: _504  and  _507
REMARK  206  A    between atoms: _507  and  _508
REMARK  207  A    between atoms: _510  and  _512
REMARK  208  A    between atoms: _512  and  _513
REMARK  209  A    between atoms: _515  and  _517
REMARK  210  A    between atoms: _517  and  _518
REMARK  211  A    between atoms: _517  and  _520
REMARK  212  A    between atoms: _520  and  _521
REMARK  213  A    between atoms: _524  and  _526
REMARK  214  A    between atoms: _526  and  _527
REMARK  215  A    between atoms: _529  and  _531
REMARK  216  A    between atoms: _531  and  _532
REMARK  217  A    between atoms: _531  and  _534
REMARK  218  A    between atoms: _534  and  _535
REMARK  219  A    between atoms: _540  and  _542
REMARK  220  A    between atoms: _542  and  _543
REMARK  221  A    between atoms: _542  and  _545
REMARK  222  A    between atoms: _545  and  _546
REMARK  223  A    between atoms: _546  and  _547
REMARK  224  A    between atoms: _554  and  _555
REMARK  225  A    between atoms: _555  and  _571
REMARK  226  A    between atoms: _556  and  _558
REMARK  227  A    between atoms: _558  and  _559
REMARK  228  A    between atoms: _559  and  _560
REMARK  229  A    between atoms: _564  and  _566
REMARK  230  A    between atoms: _566  and  _567
REMARK  231  A    between atoms: _566  and  _574
REMARK  232  A    between atoms: _567  and  _568
REMARK  233  A    between atoms: _568  and  _569
REMARK  234  A    between atoms: _569  and  _570
REMARK  235  A    between atoms: _570  and  _571
REMARK  236  A    between atoms: _576  and  _578
REMARK  237  A    between atoms: _578  and  _579
REMARK  238  A    between atoms: _578  and  _581
REMARK  239  A    between atoms: _581  and  _582
REMARK  240  A    between atoms: _585  and  _587
REMARK  241  A    between atoms: _587  and  _588
REMARK  242  A    between atoms: _590  and  _592
REMARK  243  A    between atoms: _592  and  _593
REMARK  244  A    between atoms: _596  and  _598
REMARK  245  A    between atoms: _598  and  _599
REMARK  246  A    between atoms: _598  and  _601
REMARK  247  A    between atoms: _601  and  _602
REMARK  248  A    between atoms: _607  and  _608
REMARK                            x       y       z     vdW  Elec       q    Type
REMARK                         _______ _______ _______ _____ _____    ______ ____
ROOT
ATOM      1  O   HOH     1      31.701  26.175  27.038  0.00  0.00    +0.000 OA
ENDROOT
TORSDOF 0
REMARK  Name = ../refined-set-2016/3g2i/3g2i_pocket.pdb
REMARK  248 active torsions:
REMARK  status: ('A' for Active; 'I' for Inactive)
REMARK    1  A    between atoms: _1  and  _3
REMARK    2  A    between atoms: _3  and  _4
REMARK    3  A    between atoms: _3  and  _6
REMARK    4  A    between atoms: _6  and  _7
REMARK    5  A    between atoms: _12  and  _13
REMARK    6  A    between atoms: _15  and  _17
REMARK    7  A    between atoms: _17  and  _18
REMARK    8  A    between atoms: _17  and  _20
REMARK    9  A    between atoms: _20  and  _21
REMARK   10  A    between atoms: _21  and  _22
REMARK   11  A    between atoms: _25  and  _27
REMARK   12  A    between atoms: _27  and  _28
REMARK   13  A    between atoms: _27  and  _30
REMARK   14  A    between atoms: _30  and  _31
REMARK   15  A    between atoms: _36  and  _38
REMARK   16  A    between atoms: _38  and  _39
REMARK   17  A    between atoms: _41  and  _43
REMARK   18  A    between atoms: _43  and  _44
REMARK   19  A    between atoms: _46  and  _48
REMARK   20  A    between atoms: _48  and  _49
REMARK   21  A    between atoms: _48  and  _51
REMARK   22  A    between atoms: _51  and  _52
REMARK   23  A    between atoms: _55  and  _57
REMARK   24  A    between atoms: _57  and  _58
REMARK   25  A    between atoms: _60  and  _62
REMARK   26  A    between atoms: _62  and  _63
REMARK   27  A    between atoms: _62  and  _65
REMARK   28  A    between atoms: _65  and  _66
REMARK   29  A    between atoms: _66  and  _67
REMARK   30  A    between atoms: _67  and  _68
REMARK   31  A    between atoms: _77  and  _79
REMARK   32  A    between atoms: _79  and  _80
REMARK   33  A    between atoms: _79  and  _82
REMARK   34  A    between atoms: _82  and  _83
REMARK   35  A    between atoms: _86  and  _88
REMARK   36  A    between atoms: _88  and  _89
REMARK   37  A    between atoms: _92  and  _94
REMARK   38  A    between atoms: _94  and  _95
REMARK   39  A    between atoms: _94  and  _97
REMARK   40  A    between atoms: _97  and  _98
REMARK   41  A    between atoms: _104  and  _106
REMARK   42  A    between atoms: _106  and  _107
REMARK   43  A    between atoms: _106  and  _109
REMARK   44  A    between atoms: _109  and  _110
REMARK   45  A    between atoms: _115  and  _117
REMARK   46  A    between atoms: _117  and  _118
REMARK   47  A    between atoms: _117  and  _120
REMARK   48  A    between atoms: _120  and  _121
REMARK   49  A    between atoms: _124  and  _126
REMARK   50  A    between atoms: _126  and  _127
REMARK   51  A    between atoms: _126  and  _129
REMARK   52  A    between atoms: _129  and  _130
REMARK   53  A    between atoms: _135  and  _137
REMARK   54  A    between atoms: _137  and  _138
REMARK   55  A    between atoms: _137  and  _140
REMARK   56  A    between atoms: _140  and  _141
REMARK   57  A    between atoms: _147  and  _149
REMARK   58  A    between atoms: _149  and  _150
REMARK   59  A    between atoms: _149  and  _152
REMARK   60  A    between atoms: _152  and  _153
REMARK   61  A    between atoms: _159  and  _161
REMARK   62  A    between atoms: _161  and  _162
REMARK   63  A    between atoms: _161  and  _164
REMARK   64  A    between atoms: _164  and  _165
REMARK   65  A    between atoms: _165  and  _166
REMARK   66  A    between atoms: _166  and  _167
REMARK   67  A    between atoms: _176  and  _178
REMARK   68  A    between atoms: _178  and  _179
REMARK   69  A    between atoms: _178  and  _181
REMARK   70  A    between atoms: _181  and  _182
REMARK   71  A    between atoms: _187  and  _189
REMARK   72  A    between atoms: _189  and  _190
REMARK   73  A    between atoms: _189  and  _192
REMARK   74  A    between atoms: _192  and  _193
REMARK   75  A    between atoms: _196  and  _198
REMARK   76  A    between atoms: _198  and  _199
REMARK   77  A    between atoms: _198  and  _201
REMARK   78  A    between atoms: _201  and  _202
REMARK   79  A    between atoms: _205  and  _207
REMARK   80  A    between atoms: _207  and  _208
REMARK   81  A    between atoms: _207  and  _210
REMARK   82  A    between atoms: _210  and  _211
REMARK   83  A    between atoms: _216  and  _218
REMARK   84  A    between atoms: _218  and  _219
REMARK   85  A    between atoms: _218  and  _221
REMARK   86  A    between atoms: _221  and  _222
REMARK   87  A    between atoms: _227  and  _228
REMARK   88  A    between atoms: _230  and  _232
REMARK   89  A    between atoms: _232  and  _233
REMARK   90  A    between atoms: _232  and  _235
REMARK   91  A    between atoms: _235  and  _236
REMARK   92  A    between atoms: _239  and  _241
REMARK   93  A    between atoms: _241  and  _242
REMARK   94  A    between atoms: _241  and  _244
REMARK   95  A    between atoms: _244  and  _245
REMARK   96  A    between atoms: _250  and  _252
REMARK   97  A    between atoms: _252  and  _253
REMARK   98  A    between atoms: _252  and  _255
REMARK   99  A    between atoms: _255  and  _256
REMARK  100  A    between atoms: _261  and  _263
REMARK  101  A    between atoms: _263  and  _264
REMARK  102  A    between atoms: _263  and  _266
REMARK  103  A    between atoms: _266  and  _267
REMARK  104  A    between atoms: _270  and  _272
REMARK  105  A    between atoms: _272  and  _273
REMARK  106  A    between atoms: _272  and  _275
REMARK  107  A    between atoms: _278  and  _280
REMARK  108  A    between atoms: _280  and  _281
REMARK  109  A    between atoms: _280  and  _283
REMARK  110  A    between atoms: _283  and  _284
REMARK  111  A    between atoms: _287  and  _289
REMARK  112  A    between atoms: _289  and  _290
REMARK  113  A    between atoms: _289  and  _292
REMARK  114  A    between atoms: _292  and  _293
REMARK  115  A    between atoms: _293  and  _294
REMARK  116  A    between atoms: _297  and  _299
REMARK  117  A    between atoms: _299  and  _300
REMARK  118  A    between atoms: _303  and  _305
REMARK  119  A    between atoms: _305  and  _306
REMARK  120  A    between atoms: _305  and  _308
REMARK  121  A    between atoms: _308  and  _309
REMARK  122  A    between atoms: _312  and  _314
REMARK  123  A    between atoms: _314  and  _315
REMARK  124  A    between atoms: _314  and  _317
REMARK  125  A    between atoms: _317  and  _318
REMARK  126  A    between atoms: _318  and  _319
REMARK  127  A    between atoms: _322  and  _324
REMARK  128  A    between atoms: _324  and  _325
REMARK  129  A    between atoms: _324  and  _327
REMARK  130  A    between atoms: _327  and  _328
REMARK  131  A    between atoms: _333  and  _335
REMARK  132  A    between atoms: _335  and  _336
REMARK  133  A    between atoms: _338  and  _340
REMARK  134  A    between atoms: _340  and  _341
REMARK  135  A    between atoms: _340  and  _343
REMARK  136  A    between atoms: _346  and  _348
REMARK  137  A    between atoms: _348  and  _349
REMARK  138  A    between atoms: _352  and  _354
REMARK  139  A    between atoms: _354  and  _355
REMARK  140  A    between atoms: _354  and  _357
REMARK  141  A    between atoms: _357  and  _358
REMARK  142  A    between atoms: _363  and  _365
REMARK  143  A    between atoms: _365  and  _366
REMARK  144  A    between atoms: _365  and  _368
REMARK  145  A    between atoms: _368  and  _369
REMARK  146  A    between atoms: _369  and  _370
REMARK  147  A    between atoms: _370  and  _371
REMARK  148  A    between atoms: _371  and  _372
REMARK  149  A    between atoms: _376  and  _378
REMARK  150  A    between atoms: _378  and  _379
REMARK  151  A    between atoms: _378  and  _381
REMARK  152  A    between atoms: _381  and  _382
REMARK  153  A    between atoms: _385  and  _387
REMARK  154  A    between atoms: _387  and  _388
REMARK  155  A    between atoms: _387  and  _390
REMARK  156  A    between atoms: _390  and  _391
REMARK  157  A    between atoms: _396  and  _398
REMARK  158  A    between atoms: _398  and  _399
REMARK  159  A    between atoms: _401  and  _403
REMARK  160  A    between atoms: _403  and  _404
REMARK  161  A    between atoms: _403  and  _406
REMARK  162  A    between atoms: _406  and  _407
REMARK  163  A    between atoms: _407  and  _408
REMARK  164  A    between atoms: _408  and  _409
REMARK  165  A    between atoms: _409  and  _410
REMARK  166  A    between atoms: _414  and  _416
REMARK  167  A    between atoms: _416  and  _417
REMARK  168  A    between atoms: _416  and  _419
REMARK  169  A    between atoms: _419  and  _420
REMARK  170  A    between atoms: _420  and  _421
REMARK  171  A    between atoms: _421  and  _422
REMARK  172  A    between atoms: _431  and  _433
REMARK  173  A    between atoms: _433  and  _434
REMARK  174  A    between atoms: _433  and  _436
REMARK  175  A    between atoms: _436  and  _437
REMARK  176  A    between atoms: _442  and  _444
REMARK  177  A    between atoms: _444  and  _445
REMARK  178  A    between atoms: _444  and  _447
REMARK  179  A    between atoms: _447  and  _448
REMARK  180  A    between atoms: _453  and  _454
REMARK  181  A    between atoms: _456  and  _458
REMARK  182  A    between atoms: _458  and  _459
REMARK  183  A    between atoms: _458  and  _461
REMARK  184  A    between atoms: _461  and  _462
REMARK  185  A    between atoms: _462  and  _463
REMARK  186  A    between atoms: _463  and  _464
REMARK  187  A    between atoms: _464  and  _465
REMARK  188  A    between atoms: _469  and  _471
REMARK  189  A    between atoms: _471  and  _472
REMARK  190  A    between atoms: _471  and  _474
REMARK  191  A    between atoms: _474  and  _475
REMARK  192  A    between atoms: _477  and  _479
REMARK  193  A    between atoms: _479  and  _480
REMARK  194  A    between atoms: _479  and  _482
REMARK  195  A    between atoms: _482  and  _483
REMARK  196  A    between atoms: _486  and  _488
REMARK  197  A    between atoms: _488  and  _489
REMARK  198  A    between atoms: _488  and  _491
REMARK  199  A    between atoms: _491  and  _492
REMARK  200  A    between atoms: _492  and  _493
REMARK  201  A    between atoms: _496  and  _498
REMARK  202  A    between atoms: _498  and  _499
REMARK  203  A    between atoms: _502  and  _504
REMARK  204  A    between atoms: _504  and  _505
REMARK  205  A    between atoms: _504  and  _507
REMARK  206  A    between atoms: _507  and  _508
REMARK  207  A    between atoms: _510  and  _512
REMARK  208  A    between atoms: _512  and  _513
REMARK  209  A    between atoms: _515  and  _517
REMARK  210  A    between atoms: _517  and  _518
REMARK  211  A    between atoms: _517  and  _520
REMARK  212  A    between atoms: _520  and  _521
REMARK  213  A    between atoms: _524  and  _526
REMARK  214  A    between atoms: _526  and  _527
REMARK  215  A    between atoms: _529  and  _531
REMARK  216  A    between atoms: _531  and  _532
REMARK  217  A    between atoms: _531  and  _534
REMARK  218  A    between atoms: _534  and  _535
REMARK  219  A    between atoms: _540  and  _542
REMARK  220  A    between atoms: _542  and  _543
REMARK  221  A    between atoms: _542  and  _545
REMARK  222  A    between atoms: _545  and  _546
REMARK  223  A    between atoms: _546  and  _547
REMARK  224  A    between atoms: _554  and  _555
REMARK  225  A    between atoms: _555  and  _571
REMARK  226  A    between atoms: _556  and  _558
REMARK  227  A    between atoms: _558  and  _559
REMARK  228  A    between atoms: _559  and  _560
REMARK  229  A    between atoms: _564  and  _566
REMARK  230  A    between atoms: _566  and  _567
REMARK  231  A    between atoms: _566  and  _574
REMARK  232  A    between atoms: _567  and  _568
REMARK  233  A    between atoms: _568  and  _569
REMARK  234  A    between atoms: _569  and  _570
REMARK  235  A    between atoms: _570  and  _571
REMARK  236  A    between atoms: _576  and  _578
REMARK  237  A    between atoms: _578  and  _579
REMARK  238  A    between atoms: _578  and  _581
REMARK  239  A    between atoms: _581  and  _582
REMARK  240  A    between atoms: _585  and  _587
REMARK  241  A    between atoms: _587  and  _588
REMARK  242  A    between atoms: _590  and  _592
REMARK  243  A    between atoms: _592  and  _593
REMARK  244  A    between atoms: _596  and  _598
REMARK  245  A    between atoms: _598  and  _599
REMARK  246  A    between atoms: _598  and  _601
REMARK  247  A    between atoms: _601  and  _602
REMARK  248  A    between atoms: _607  and  _608
REMARK                            x       y       z     vdW  Elec       q    Type
REMARK                         _______ _______ _______ _____ _____    ______ ____
ROOT
ATOM      1  O   HOH     1      35.354  25.737  32.440  0.00  0.00    +0.000 OA
ENDROOT
TORSDOF 0
REMARK  Name = ../refined-set-2016/3g2i/3g2i_pocket.pdb
REMARK  248 active torsions:
REMARK  status: ('A' for Active; 'I' for Inactive)
REMARK    1  A    between atoms: _1  and  _3
REMARK    2  A    between atoms: _3  and  _4
REMARK    3  A    between atoms: _3  and  _6
REMARK    4  A    between atoms: _6  and  _7
REMARK    5  A    between atoms: _12  and  _13
REMARK    6  A    between atoms: _15  and  _17
REMARK    7  A    between atoms: _17  and  _18
REMARK    8  A    between atoms: _17  and  _20
REMARK    9  A    between atoms: _20  and  _21
REMARK   10  A    between atoms: _21  and  _22
REMARK   11  A    between atoms: _25  and  _27
REMARK   12  A    between atoms: _27  and  _28
REMARK   13  A    between atoms: _27  and  _30
REMARK   14  A    between atoms: _30  and  _31
REMARK   15  A    between atoms: _36  and  _38
REMARK   16  A    between atoms: _38  and  _39
REMARK   17  A    between atoms: _41  and  _43
REMARK   18  A    between atoms: _43  and  _44
REMARK   19  A    between atoms: _46  and  _48
REMARK   20  A    between atoms: _48  and  _49
REMARK   21  A    between atoms: _48  and  _51
REMARK   22  A    between atoms: _51  and  _52
REMARK   23  A    between atoms: _55  and  _57
REMARK   24  A    between atoms: _57  and  _58
REMARK   25  A    between atoms: _60  and  _62
REMARK   26  A    between atoms: _62  and  _63
REMARK   27  A    between atoms: _62  and  _65
REMARK   28  A    between atoms: _65  and  _66
REMARK   29  A    between atoms: _66  and  _67
REMARK   30  A    between atoms: _67  and  _68
REMARK   31  A    between atoms: _77  and  _79
REMARK   32  A    between atoms: _79  and  _80
REMARK   33  A    between atoms: _79  and  _82
REMARK   34  A    between atoms: _82  and  _83
REMARK   35  A    between atoms: _86  and  _88
REMARK   36  A    between atoms: _88  and  _89
REMARK   37  A    between atoms: _92  and  _94
REMARK   38  A    between atoms: _94  and  _95
REMARK   39  A    between atoms: _94  and  _97
REMARK   40  A    between atoms: _97  and  _98
REMARK   41  A    between atoms: _104  and  _106
REMARK   42  A    between atoms: _106  and  _107
REMARK   43  A    between atoms: _106  and  _109
REMARK   44  A    between atoms: _109  and  _110
REMARK   45  A    between atoms: _115  and  _117
REMARK   46  A    between atoms: _117  and  _118
REMARK   47  A    between atoms: _117  and  _120
REMARK   48  A    between atoms: _120  and  _121
REMARK   49  A    between atoms: _124  and  _126
REMARK   50  A    between atoms: _126  and  _127
REMARK   51  A    between atoms: _126  and  _129
REMARK   52  A    between atoms: _129  and  _130
REMARK   53  A    between atoms: _135  and  _137
REMARK   54  A    between atoms: _137  and  _138
REMARK   55  A    between atoms: _137  and  _140
REMARK   56  A    between atoms: _140  and  _141
REMARK   57  A    between atoms: _147  and  _149
REMARK   58  A    between atoms: _149  and  _150
REMARK   59  A    between atoms: _149  and  _152
REMARK   60  A    between atoms: _152  and  _153
REMARK   61  A    between atoms: _159  and  _161
REMARK   62  A    between atoms: _161  and  _162
REMARK   63  A    between atoms: _161  and  _164
REMARK   64  A    between atoms: _164  and  _165
REMARK   65  A    between atoms: _165  and  _166
REMARK   66  A    between atoms: _166  and  _167
REMARK   67  A    between atoms: _176  and  _178
REMARK   68  A    between atoms: _178  and  _179
REMARK   69  A    between atoms: _178  and  _181
REMARK   70  A    between atoms: _181  and  _182
REMARK   71  A    between atoms: _187  and  _189
REMARK   72  A    between atoms: _189  and  _190
REMARK   73  A    between atoms: _189  and  _192
REMARK   74  A    between atoms: _192  and  _193
REMARK   75  A    between atoms: _196  and  _198
REMARK   76  A    between atoms: _198  and  _199
REMARK   77  A    between atoms: _198  and  _201
REMARK   78  A    between atoms: _201  and  _202
REMARK   79  A    between atoms: _205  and  _207
REMARK   80  A    between atoms: _207  and  _208
REMARK   81  A    between atoms: _207  and  _210
REMARK   82  A    between atoms: _210  and  _211
REMARK   83  A    between atoms: _216  and  _218
REMARK   84  A    between atoms: _218  and  _219
REMARK   85  A    between atoms: _218  and  _221
REMARK   86  A    between atoms: _221  and  _222
REMARK   87  A    between atoms: _227  and  _228
REMARK   88  A    between atoms: _230  and  _232
REMARK   89  A    between atoms: _232  and  _233
REMARK   90  A    between atoms: _232  and  _235
REMARK   91  A    between atoms: _235  and  _236
REMARK   92  A    between atoms: _239  and  _241
REMARK   93  A    between atoms: _241  and  _242
REMARK   94  A    between atoms: _241  and  _244
REMARK   95  A    between atoms: _244  and  _245
REMARK   96  A    between atoms: _250  and  _252
REMARK   97  A    between atoms: _252  and  _253
REMARK   98  A    between atoms: _252  and  _255
REMARK   99  A    between atoms: _255  and  _256
REMARK  100  A    between atoms: _261  and  _263
REMARK  101  A    between atoms: _263  and  _264
REMARK  102  A    between atoms: _263  and  _266
REMARK  103  A    between atoms: _266  and  _267
REMARK  104  A    between atoms: _270  and  _272
REMARK  105  A    between atoms: _272  and  _273
REMARK  106  A    between atoms: _272  and  _275
REMARK  107  A    between atoms: _278  and  _280
REMARK  108  A    between atoms: _280  and  _281
REMARK  109  A    between atoms: _280  and  _283
REMARK  110  A    between atoms: _283  and  _284
REMARK  111  A    between atoms: _287  and  _289
REMARK  112  A    between atoms: _289  and  _290
REMARK  113  A    between atoms: _289  and  _292
REMARK  114  A    between atoms: _292  and  _293
REMARK  115  A    between atoms: _293  and  _294
REMARK  116  A    between atoms: _297  and  _299
REMARK  117  A    between atoms: _299  and  _300
REMARK  118  A    between atoms: _303  and  _305
REMARK  119  A    between atoms: _305  and  _306
REMARK  120  A    between atoms: _305  and  _308
REMARK  121  A    between atoms: _308  and  _309
REMARK  122  A    between atoms: _312  and  _314
REMARK  123  A    between atoms: _314  and  _315
REMARK  124  A    between atoms: _314  and  _317
REMARK  125  A    between atoms: _317  and  _318
REMARK  126  A    between atoms: _318  and  _319
REMARK  127  A    between atoms: _322  and  _324
REMARK  128  A    between atoms: _324  and  _325
REMARK  129  A    between atoms: _324  and  _327
REMARK  130  A    between atoms: _327  and  _328
REMARK  131  A    between atoms: _333  and  _335
REMARK  132  A    between atoms: _335  and  _336
REMARK  133  A    between atoms: _338  and  _340
REMARK  134  A    between atoms: _340  and  _341
REMARK  135  A    between atoms: _340  and  _343
REMARK  136  A    between atoms: _346  and  _348
REMARK  137  A    between atoms: _348  and  _349
REMARK  138  A    between atoms: _352  and  _354
REMARK  139  A    between atoms: _354  and  _355
REMARK  140  A    between atoms: _354  and  _357
REMARK  141  A    between atoms: _357  and  _358
REMARK  142  A    between atoms: _363  and  _365
REMARK  143  A    between atoms: _365  and  _366
REMARK  144  A    between atoms: _365  and  _368
REMARK  145  A    between atoms: _368  and  _369
REMARK  146  A    between atoms: _369  and  _370
REMARK  147  A    between atoms: _370  and  _371
REMARK  148  A    between atoms: _371  and  _372
REMARK  149  A    between atoms: _376  and  _378
REMARK  150  A    between atoms: _378  and  _379
REMARK  151  A    between atoms: _378  and  _381
REMARK  152  A    between atoms: _381  and  _382
REMARK  153  A    between atoms: _385  and  _387
REMARK  154  A    between atoms: _387  and  _388
REMARK  155  A    between atoms: _387  and  _390
REMARK  156  A    between atoms: _390  and  _391
REMARK  157  A    between atoms: _396  and  _398
REMARK  158  A    between atoms: _398  and  _399
REMARK  159  A    between atoms: _401  and  _403
REMARK  160  A    between atoms: _403  and  _404
REMARK  161  A    between atoms: _403  and  _406
REMARK  162  A    between atoms: _406  and  _407
REMARK  163  A    between atoms: _407  and  _408
REMARK  164  A    between atoms: _408  and  _409
REMARK  165  A    between atoms: _409  and  _410
REMARK  166  A    between atoms: _414  and  _416
REMARK  167  A    between atoms: _416  and  _417
REMARK  168  A    between atoms: _416  and  _419
REMARK  169  A    between atoms: _419  and  _420
REMARK  170  A    between atoms: _420  and  _421
REMARK  171  A    between atoms: _421  and  _422
REMARK  172  A    between atoms: _431  and  _433
REMARK  173  A    between atoms: _433  and  _434
REMARK  174  A    between atoms: _433  and  _436
REMARK  175  A    between atoms: _436  and  _437
REMARK  176  A    between atoms: _442  and  _444
REMARK  177  A    between atoms: _444  and  _445
REMARK  178  A    between atoms: _444  and  _447
REMARK  179  A    between atoms: _447  and  _448
REMARK  180  A    between atoms: _453  and  _454
REMARK  181  A    between atoms: _456  and  _458
REMARK  182  A    between atoms: _458  and  _459
REMARK  183  A    between atoms: _458  and  _461
REMARK  184  A    between atoms: _461  and  _462
REMARK  185  A    between atoms: _462  and  _463
REMARK  186  A    between atoms: _463  and  _464
REMARK  187  A    between atoms: _464  and  _465
REMARK  188  A    between atoms: _469  and  _471
REMARK  189  A    between atoms: _471  and  _472
REMARK  190  A    between atoms: _471  and  _474
REMARK  191  A    between atoms: _474  and  _475
REMARK  192  A    between atoms: _477  and  _479
REMARK  193  A    between atoms: _479  and  _480
REMARK  194  A    between atoms: _479  and  _482
REMARK  195  A    between atoms: _482  and  _483
REMARK  196  A    between atoms: _486  and  _488
REMARK  197  A    between atoms: _488  and  _489
REMARK  198  A    between atoms: _488  and  _491
REMARK  199  A    between atoms: _491  and  _492
REMARK  200  A    between atoms: _492  and  _493
REMARK  201  A    between atoms: _496  and  _498
REMARK  202  A    between atoms: _498  and  _499
REMARK  203  A    between atoms: _502  and  _504
REMARK  204  A    between atoms: _504  and  _505
REMARK  205  A    between atoms: _504  and  _507
REMARK  206  A    between atoms: _507  and  _508
REMARK  207  A    between atoms: _510  and  _512
REMARK  208  A    between atoms: _512  and  _513
REMARK  209  A    between atoms: _515  and  _517
REMARK  210  A    between atoms: _517  and  _518
REMARK  211  A    between atoms: _517  and  _520
REMARK  212  A    between atoms: _520  and  _521
REMARK  213  A    between atoms: _524  and  _526
REMARK  214  A    between atoms: _526  and  _527
REMARK  215  A    between atoms: _529  and  _531
REMARK  216  A    between atoms: _531  and  _532
REMARK  217  A    between atoms: _531  and  _534
REMARK  218  A    between atoms: _534  and  _535
REMARK  219  A    between atoms: _540  and  _542
REMARK  220  A    between atoms: _542  and  _543
REMARK  221  A    between atoms: _542  and  _545
REMARK  222  A    between atoms: _545  and  _546
REMARK  223  A    between atoms: _546  and  _547
REMARK  224  A    between atoms: _554  and  _555
REMARK  225  A    between atoms: _555  and  _571
REMARK  226  A    between atoms: _556  and  _558
REMARK  227  A    between atoms: _558  and  _559
REMARK  228  A    between atoms: _559  and  _560
REMARK  229  A    between atoms: _564  and  _566
REMARK  230  A    between atoms: _566  and  _567
REMARK  231  A    between atoms: _566  and  _574
REMARK  232  A    between atoms: _567  and  _568
REMARK  233  A    between atoms: _568  and  _569
REMARK  234  A    between atoms: _569  and  _570
REMARK  235  A    between atoms: _570  and  _571
REMARK  236  A    between atoms: _576  and  _578
REMARK  237  A    between atoms: _578  and  _579
REMARK  238  A    between atoms: _578  and  _581
REMARK  239  A    between atoms: _581  and  _582
REMARK  240  A    between atoms: _585  and  _587
REMARK  241  A    between atoms: _587  and  _588
REMARK  242  A    between atoms: _590  and  _592
REMARK  243  A    between atoms: _592  and  _593
REMARK  244  A    between atoms: _596  and  _598
REMARK  245  A    between atoms: _598  and  _599
REMARK  246  A    between atoms: _598  and  _601
REMARK  247  A    between atoms: _601  and  _602
REMARK  248  A    between atoms: _607  and  _608
REMARK                            x       y       z     vdW  Elec       q    Type
REMARK                         _______ _______ _______ _____ _____    ______ ____
ROOT
ATOM      1  O   HOH     1      40.471  23.925  31.994  0.00  0.00    +0.000 OA
ENDROOT
TORSDOF 0
REMARK  Name = ../refined-set-2016/3g2i/3g2i_pocket.pdb
REMARK  248 active torsions:
REMARK  status: ('A' for Active; 'I' for Inactive)
REMARK    1  A    between atoms: _1  and  _3
REMARK    2  A    between atoms: _3  and  _4
REMARK    3  A    between atoms: _3  and  _6
REMARK    4  A    between atoms: _6  and  _7
REMARK    5  A    between atoms: _12  and  _13
REMARK    6  A    between atoms: _15  and  _17
REMARK    7  A    between atoms: _17  and  _18
REMARK    8  A    between atoms: _17  and  _20
REMARK    9  A    between atoms: _20  and  _21
REMARK   10  A    between atoms: _21  and  _22
REMARK   11  A    between atoms: _25  and  _27
REMARK   12  A    between atoms: _27  and  _28
REMARK   13  A    between atoms: _27  and  _30
REMARK   14  A    between atoms: _30  and  _31
REMARK   15  A    between atoms: _36  and  _38
REMARK   16  A    between atoms: _38  and  _39
REMARK   17  A    between atoms: _41  and  _43
REMARK   18  A    between atoms: _43  and  _44
REMARK   19  A    between atoms: _46  and  _48
REMARK   20  A    between atoms: _48  and  _49
REMARK   21  A    between atoms: _48  and  _51
REMARK   22  A    between atoms: _51  and  _52
REMARK   23  A    between atoms: _55  and  _57
REMARK   24  A    between atoms: _57  and  _58
REMARK   25  A    between atoms: _60  and  _62
REMARK   26  A    between atoms: _62  and  _63
REMARK   27  A    between atoms: _62  and  _65
REMARK   28  A    between atoms: _65  and  _66
REMARK   29  A    between atoms: _66  and  _67
REMARK   30  A    between atoms: _67  and  _68
REMARK   31  A    between atoms: _77  and  _79
REMARK   32  A    between atoms: _79  and  _80
REMARK   33  A    between atoms: _79  and  _82
REMARK   34  A    between atoms: _82  and  _83
REMARK   35  A    between atoms: _86  and  _88
REMARK   36  A    between atoms: _88  and  _89
REMARK   37  A    between atoms: _92  and  _94
REMARK   38  A    between atoms: _94  and  _95
REMARK   39  A    between atoms: _94  and  _97
REMARK   40  A    between atoms: _97  and  _98
REMARK   41  A    between atoms: _104  and  _106
REMARK   42  A    between atoms: _106  and  _107
REMARK   43  A    between atoms: _106  and  _109
REMARK   44  A    between atoms: _109  and  _110
REMARK   45  A    between atoms: _115  and  _117
REMARK   46  A    between atoms: _117  and  _118
REMARK   47  A    between atoms: _117  and  _120
REMARK   48  A    between atoms: _120  and  _121
REMARK   49  A    between atoms: _124  and  _126
REMARK   50  A    between atoms: _126  and  _127
REMARK   51  A    between atoms: _126  and  _129
REMARK   52  A    between atoms: _129  and  _130
REMARK   53  A    between atoms: _135  and  _137
REMARK   54  A    between atoms: _137  and  _138
REMARK   55  A    between atoms: _137  and  _140
REMARK   56  A    between atoms: _140  and  _141
REMARK   57  A    between atoms: _147  and  _149
REMARK   58  A    between atoms: _149  and  _150
REMARK   59  A    between atoms: _149  and  _152
REMARK   60  A    between atoms: _152  and  _153
REMARK   61  A    between atoms: _159  and  _161
REMARK   62  A    between atoms: _161  and  _162
REMARK   63  A    between atoms: _161  and  _164
REMARK   64  A    between atoms: _164  and  _165
REMARK   65  A    between atoms: _165  and  _166
REMARK   66  A    between atoms: _166  and  _167
REMARK   67  A    between atoms: _176  and  _178
REMARK   68  A    between atoms: _178  and  _179
REMARK   69  A    between atoms: _178  and  _181
REMARK   70  A    between atoms: _181  and  _182
REMARK   71  A    between atoms: _187  and  _189
REMARK   72  A    between atoms: _189  and  _190
REMARK   73  A    between atoms: _189  and  _192
REMARK   74  A    between atoms: _192  and  _193
REMARK   75  A    between atoms: _196  and  _198
REMARK   76  A    between atoms: _198  and  _199
REMARK   77  A    between atoms: _198  and  _201
REMARK   78  A    between atoms: _201  and  _202
REMARK   79  A    between atoms: _205  and  _207
REMARK   80  A    between atoms: _207  and  _208
REMARK   81  A    between atoms: _207  and  _210
REMARK   82  A    between atoms: _210  and  _211
REMARK   83  A    between atoms: _216  and  _218
REMARK   84  A    between atoms: _218  and  _219
REMARK   85  A    between atoms: _218  and  _221
REMARK   86  A    between atoms: _221  and  _222
REMARK   87  A    between atoms: _227  and  _228
REMARK   88  A    between atoms: _230  and  _232
REMARK   89  A    between atoms: _232  and  _233
REMARK   90  A    between atoms: _232  and  _235
REMARK   91  A    between atoms: _235  and  _236
REMARK   92  A    between atoms: _239  and  _241
REMARK   93  A    between atoms: _241  and  _242
REMARK   94  A    between atoms: _241  and  _244
REMARK   95  A    between atoms: _244  and  _245
REMARK   96  A    between atoms: _250  and  _252
REMARK   97  A    between atoms: _252  and  _253
REMARK   98  A    between atoms: _252  and  _255
REMARK   99  A    between atoms: _255  and  _256
REMARK  100  A    between atoms: _261  and  _263
REMARK  101  A    between atoms: _263  and  _264
REMARK  102  A    between atoms: _263  and  _266
REMARK  103  A    between atoms: _266  and  _267
REMARK  104  A    between atoms: _270  and  _272
REMARK  105  A    between atoms: _272  and  _273
REMARK  106  A    between atoms: _272  and  _275
REMARK  107  A    between atoms: _278  and  _280
REMARK  108  A    between atoms: _280  and  _281
REMARK  109  A    between atoms: _280  and  _283
REMARK  110  A    between atoms: _283  and  _284
REMARK  111  A    between atoms: _287  and  _289
REMARK  112  A    between atoms: _289  and  _290
REMARK  113  A    between atoms: _289  and  _292
REMARK  114  A    between atoms: _292  and  _293
REMARK  115  A    between atoms: _293  and  _294
REMARK  116  A    between atoms: _297  and  _299
REMARK  117  A    between atoms: _299  and  _300
REMARK  118  A    between atoms: _303  and  _305
REMARK  119  A    between atoms: _305  and  _306
REMARK  120  A    between atoms: _305  and  _308
REMARK  121  A    between atoms: _308  and  _309
REMARK  122  A    between atoms: _312  and  _314
REMARK  123  A    between atoms: _314  and  _315
REMARK  124  A    between atoms: _314  and  _317
REMARK  125  A    between atoms: _317  and  _318
REMARK  126  A    between atoms: _318  and  _319
REMARK  127  A    between atoms: _322  and  _324
REMARK  128  A    between atoms: _324  and  _325
REMARK  129  A    between atoms: _324  and  _327
REMARK  130  A    between atoms: _327  and  _328
REMARK  131  A    between atoms: _333  and  _335
REMARK  132  A    between atoms: _335  and  _336
REMARK  133  A    between atoms: _338  and  _340
REMARK  134  A    between atoms: _340  and  _341
REMARK  135  A    between atoms: _340  and  _343
REMARK  136  A    between atoms: _346  and  _348
REMARK  137  A    between atoms: _348  and  _349
REMARK  138  A    between atoms: _352  and  _354
REMARK  139  A    between atoms: _354  and  _355
REMARK  140  A    between atoms: _354  and  _357
REMARK  141  A    between atoms: _357  and  _358
REMARK  142  A    between atoms: _363  and  _365
REMARK  143  A    between atoms: _365  and  _366
REMARK  144  A    between atoms: _365  and  _368
REMARK  145  A    between atoms: _368  and  _369
REMARK  146  A    between atoms: _369  and  _370
REMARK  147  A    between atoms: _370  and  _371
REMARK  148  A    between atoms: _371  and  _372
REMARK  149  A    between atoms: _376  and  _378
REMARK  150  A    between atoms: _378  and  _379
REMARK  151  A    between atoms: _378  and  _381
REMARK  152  A    between atoms: _381  and  _382
REMARK  153  A    between atoms: _385  and  _387
REMARK  154  A    between atoms: _387  and  _388
REMARK  155  A    between atoms: _387  and  _390
REMARK  156  A    between atoms: _390  and  _391
REMARK  157  A    between atoms: _396  and  _398
REMARK  158  A    between atoms: _398  and  _399
REMARK  159  A    between atoms: _401  and  _403
REMARK  160  A    between atoms: _403  and  _404
REMARK  161  A    between atoms: _403  and  _406
REMARK  162  A    between atoms: _406  and  _407
REMARK  163  A    between atoms: _407  and  _408
REMARK  164  A    between atoms: _408  and  _409
REMARK  165  A    between atoms: _409  and  _410
REMARK  166  A    between atoms: _414  and  _416
REMARK  167  A    between atoms: _416  and  _417
REMARK  168  A    between atoms: _416  and  _419
REMARK  169  A    between atoms: _419  and  _420
REMARK  170  A    between atoms: _420  and  _421
REMARK  171  A    between atoms: _421  and  _422
REMARK  172  A    between atoms: _431  and  _433
REMARK  173  A    between atoms: _433  and  _434
REMARK  174  A    between atoms: _433  and  _436
REMARK  175  A    between atoms: _436  and  _437
REMARK  176  A    between atoms: _442  and  _444
REMARK  177  A    between atoms: _444  and  _445
REMARK  178  A    between atoms: _444  and  _447
REMARK  179  A    between atoms: _447  and  _448
REMARK  180  A    between atoms: _453  and  _454
REMARK  181  A    between atoms: _456  and  _458
REMARK  182  A    between atoms: _458  and  _459
REMARK  183  A    between atoms: _458  and  _461
REMARK  184  A    between atoms: _461  and  _462
REMARK  185  A    between atoms: _462  and  _463
REMARK  186  A    between atoms: _463  and  _464
REMARK  187  A    between atoms: _464  and  _465
REMARK  188  A    between atoms: _469  and  _471
REMARK  189  A    between atoms: _471  and  _472
REMARK  190  A    between atoms: _471  and  _474
REMARK  191  A    between atoms: _474  and  _475
REMARK  192  A    between atoms: _477  and  _479
REMARK  193  A    between atoms: _479  and  _480
REMARK  194  A    between atoms: _479  and  _482
REMARK  195  A    between atoms: _482  and  _483
REMARK  196  A    between atoms: _486  and  _488
REMARK  197  A    between atoms: _488  and  _489
REMARK  198  A    between atoms: _488  and  _491
REMARK  199  A    between atoms: _491  and  _492
REMARK  200  A    between atoms: _492  and  _493
REMARK  201  A    between atoms: _496  and  _498
REMARK  202  A    between atoms: _498  and  _499
REMARK  203  A    between atoms: _502  and  _504
REMARK  204  A    between atoms: _504  and  _505
REMARK  205  A    between atoms: _504  and  _507
REMARK  206  A    between atoms: _507  and  _508
REMARK  207  A    between atoms: _510  and  _512
REMARK  208  A    between atoms: _512  and  _513
REMARK  209  A    between atoms: _515  and  _517
REMARK  210  A    between atoms: _517  and  _518
REMARK  211  A    between atoms: _517  and  _520
REMARK  212  A    between atoms: _520  and  _521
REMARK  213  A    between atoms: _524  and  _526
REMARK  214  A    between atoms: _526  and  _527
REMARK  215  A    between atoms: _529  and  _531
REMARK  216  A    between atoms: _531  and  _532
REMARK  217  A    between atoms: _531  and  _534
REMARK  218  A    between atoms: _534  and  _535
REMARK  219  A    between atoms: _540  and  _542
REMARK  220  A    between atoms: _542  and  _543
REMARK  221  A    between atoms: _542  and  _545
REMARK  222  A    between atoms: _545  and  _546
REMARK  223  A    between atoms: _546  and  _547
REMARK  224  A    between atoms: _554  and  _555
REMARK  225  A    between atoms: _555  and  _571
REMARK  226  A    between atoms: _556  and  _558
REMARK  227  A    between atoms: _558  and  _559
REMARK  228  A    between atoms: _559  and  _560
REMARK  229  A    between atoms: _564  and  _566
REMARK  230  A    between atoms: _566  and  _567
REMARK  231  A    between atoms: _566  and  _574
REMARK  232  A    between atoms: _567  and  _568
REMARK  233  A    between atoms: _568  and  _569
REMARK  234  A    between atoms: _569  and  _570
REMARK  235  A    between atoms: _570  and  _571
REMARK  236  A    between atoms: _576  and  _578
REMARK  237  A    between atoms: _578  and  _579
REMARK  238  A    between atoms: _578  and  _581
REMARK  239  A    between atoms: _581  and  _582
REMARK  240  A    between atoms: _585  and  _587
REMARK  241  A    between atoms: _587  and  _588
REMARK  242  A    between atoms: _590  and  _592
REMARK  243  A    between atoms: _592  and  _593
REMARK  244  A    between atoms: _596  and  _598
REMARK  245  A    between atoms: _598  and  _599
REMARK  246  A    between atoms: _598  and  _601
REMARK  247  A    between atoms: _601  and  _602
REMARK  248  A    between atoms: _607  and  _608
REMARK                            x       y       z     vdW  Elec       q    Type
REMARK                         _______ _______ _______ _____ _____    ______ ____
ROOT
ATOM      1  O   HOH     1      33.391  25.684  34.022  0.00  0.00    +0.000 OA
ENDROOT
TORSDOF 0
