REMARK  Name = ../refined-set-2016/4lbu/4lbu_pocket.pdb
REMARK  224 active torsions:
REMARK  status: ('A' for Active; 'I' for Inactive)
REMARK    1  A    between atoms: _1  and  _3
REMARK    2  A    between atoms: _3  and  _4
REMARK    3  A    between atoms: _3  and  _6
REMARK    4  A    between atoms: _6  and  _7
REMARK    5  A    between atoms: _7  and  _8
REMARK    6  A    between atoms: _11  and  _12
REMARK    7  A    between atoms: _17  and  _19
REMARK    8  A    between atoms: _19  and  _20
REMARK    9  A    between atoms: _19  and  _22
REMARK   10  A    between atoms: _25  and  _27
REMARK   11  A    between atoms: _27  and  _28
REMARK   12  A    between atoms: _30  and  _32
REMARK   13  A    between atoms: _32  and  _33
REMARK   14  A    between atoms: _32  and  _35
REMARK   15  A    between atoms: _35  and  _36
REMARK   16  A    between atoms: _39  and  _41
REMARK   17  A    between atoms: _41  and  _42
REMARK   18  A    between atoms: _45  and  _47
REMARK   19  A    between atoms: _47  and  _48
REMARK   20  A    between atoms: _51  and  _53
REMARK   21  A    between atoms: _53  and  _54
REMARK   22  A    between atoms: _53  and  _56
REMARK   23  A    between atoms: _56  and  _57
REMARK   24  A    between atoms: _60  and  _62
REMARK   25  A    between atoms: _62  and  _63
REMARK   26  A    between atoms: _62  and  _65
REMARK   27  A    between atoms: _65  and  _66
REMARK   28  A    between atoms: _69  and  _71
REMARK   29  A    between atoms: _71  and  _72
REMARK   30  A    between atoms: _74  and  _76
REMARK   31  A    between atoms: _76  and  _77
REMARK   32  A    between atoms: _76  and  _79
REMARK   33  A    between atoms: _79  and  _80
REMARK   34  A    between atoms: _85  and  _87
REMARK   35  A    between atoms: _87  and  _88
REMARK   36  A    between atoms: _87  and  _90
REMARK   37  A    between atoms: _90  and  _91
REMARK   38  A    between atoms: _94  and  _96
REMARK   39  A    between atoms: _96  and  _97
REMARK   40  A    between atoms: _96  and  _99
REMARK   41  A    between atoms: _99  and  _100
REMARK   42  A    between atoms: _105  and  _106
REMARK   43  A    between atoms: _108  and  _110
REMARK   44  A    between atoms: _110  and  _111
REMARK   45  A    between atoms: _110  and  _113
REMARK   46  A    between atoms: _113  and  _114
REMARK   47  A    between atoms: _119  and  _121
REMARK   48  A    between atoms: _121  and  _122
REMARK   49  A    between atoms: _121  and  _124
REMARK   50  A    between atoms: _124  and  _125
REMARK   51  A    between atoms: _128  and  _130
REMARK   52  A    between atoms: _130  and  _131
REMARK   53  A    between atoms: _130  and  _133
REMARK   54  A    between atoms: _133  and  _134
REMARK   55  A    between atoms: _137  and  _139
REMARK   56  A    between atoms: _139  and  _140
REMARK   57  A    between atoms: _139  and  _142
REMARK   58  A    between atoms: _142  and  _143
REMARK   59  A    between atoms: _146  and  _148
REMARK   60  A    between atoms: _148  and  _149
REMARK   61  A    between atoms: _148  and  _151
REMARK   62  A    between atoms: _151  and  _152
REMARK   63  A    between atoms: _155  and  _157
REMARK   64  A    between atoms: _157  and  _158
REMARK   65  A    between atoms: _157  and  _160
REMARK   66  A    between atoms: _160  and  _161
REMARK   67  A    between atoms: _163  and  _165
REMARK   68  A    between atoms: _165  and  _166
REMARK   69  A    between atoms: _168  and  _170
REMARK   70  A    between atoms: _170  and  _171
REMARK   71  A    between atoms: _173  and  _175
REMARK   72  A    between atoms: _175  and  _176
REMARK   73  A    between atoms: _175  and  _178
REMARK   74  A    between atoms: _178  and  _179
REMARK   75  A    between atoms: _184  and  _185
REMARK   76  A    between atoms: _187  and  _189
REMARK   77  A    between atoms: _189  and  _190
REMARK   78  A    between atoms: _189  and  _192
REMARK   79  A    between atoms: _192  and  _193
REMARK   80  A    between atoms: _193  and  _194
REMARK   81  A    between atoms: _199  and  _201
REMARK   82  A    between atoms: _201  and  _202
REMARK   83  A    between atoms: _201  and  _204
REMARK   84  A    between atoms: _207  and  _209
REMARK   85  A    between atoms: _209  and  _210
REMARK   86  A    between atoms: _209  and  _212
REMARK   87  A    between atoms: _212  and  _213
REMARK   88  A    between atoms: _213  and  _214
REMARK   89  A    between atoms: _216  and  _218
REMARK   90  A    between atoms: _218  and  _219
REMARK   91  A    between atoms: _218  and  _221
REMARK   92  A    between atoms: _221  and  _222
REMARK   93  A    between atoms: _224  and  _226
REMARK   94  A    between atoms: _226  and  _227
REMARK   95  A    between atoms: _226  and  _229
REMARK   96  A    between atoms: _229  and  _230
REMARK   97  A    between atoms: _230  and  _231
REMARK   98  A    between atoms: _236  and  _238
REMARK   99  A    between atoms: _238  and  _239
REMARK  100  A    between atoms: _238  and  _241
REMARK  101  A    between atoms: _241  and  _242
REMARK  102  A    between atoms: _242  and  _243
REMARK  103  A    between atoms: _245  and  _247
REMARK  104  A    between atoms: _247  and  _248
REMARK  105  A    between atoms: _251  and  _253
REMARK  106  A    between atoms: _253  and  _254
REMARK  107  A    between atoms: _253  and  _256
REMARK  108  A    between atoms: _256  and  _257
REMARK  109  A    between atoms: _263  and  _265
REMARK  110  A    between atoms: _265  and  _266
REMARK  111  A    between atoms: _265  and  _268
REMARK  112  A    between atoms: _268  and  _269
REMARK  113  A    between atoms: _272  and  _274
REMARK  114  A    between atoms: _274  and  _275
REMARK  115  A    between atoms: _274  and  _277
REMARK  116  A    between atoms: _277  and  _278
REMARK  117  A    between atoms: _278  and  _279
REMARK  118  A    between atoms: _282  and  _284
REMARK  119  A    between atoms: _284  and  _285
REMARK  120  A    between atoms: _284  and  _287
REMARK  121  A    between atoms: _289  and  _291
REMARK  122  A    between atoms: _291  and  _292
REMARK  123  A    between atoms: _291  and  _294
REMARK  124  A    between atoms: _294  and  _295
REMARK  125  A    between atoms: _298  and  _300
REMARK  126  A    between atoms: _300  and  _301
REMARK  127  A    between atoms: _300  and  _303
REMARK  128  A    between atoms: _303  and  _304
REMARK  129  A    between atoms: _306  and  _308
REMARK  130  A    between atoms: _308  and  _309
REMARK  131  A    between atoms: _308  and  _311
REMARK  132  A    between atoms: _311  and  _312
REMARK  133  A    between atoms: _315  and  _317
REMARK  134  A    between atoms: _317  and  _318
REMARK  135  A    between atoms: _317  and  _320
REMARK  136  A    between atoms: _320  and  _321
REMARK  137  A    between atoms: _321  and  _322
REMARK  138  A    between atoms: _327  and  _329
REMARK  139  A    between atoms: _329  and  _330
REMARK  140  A    between atoms: _329  and  _332
REMARK  141  A    between atoms: _332  and  _333
REMARK  142  A    between atoms: _333  and  _334
REMARK  143  A    between atoms: _339  and  _341
REMARK  144  A    between atoms: _341  and  _342
REMARK  145  A    between atoms: _344  and  _346
REMARK  146  A    between atoms: _346  and  _347
REMARK  147  A    between atoms: _346  and  _349
REMARK  148  A    between atoms: _349  and  _350
REMARK  149  A    between atoms: _352  and  _354
REMARK  150  A    between atoms: _354  and  _355
REMARK  151  A    between atoms: _354  and  _357
REMARK  152  A    between atoms: _357  and  _358
REMARK  153  A    between atoms: _358  and  _359
REMARK  154  A    between atoms: _359  and  _360
REMARK  155  A    between atoms: _369  and  _371
REMARK  156  A    between atoms: _371  and  _372
REMARK  157  A    between atoms: _375  and  _377
REMARK  158  A    between atoms: _377  and  _378
REMARK  159  A    between atoms: _377  and  _380
REMARK  160  A    between atoms: _383  and  _385
REMARK  161  A    between atoms: _385  and  _386
REMARK  162  A    between atoms: _388  and  _390
REMARK  163  A    between atoms: _390  and  _391
REMARK  164  A    between atoms: _393  and  _395
REMARK  165  A    between atoms: _395  and  _396
REMARK  166  A    between atoms: _395  and  _398
REMARK  167  A    between atoms: _398  and  _399
REMARK  168  A    between atoms: _402  and  _404
REMARK  169  A    between atoms: _404  and  _405
REMARK  170  A    between atoms: _408  and  _410
REMARK  171  A    between atoms: _410  and  _411
REMARK  172  A    between atoms: _410  and  _413
REMARK  173  A    between atoms: _416  and  _418
REMARK  174  A    between atoms: _418  and  _419
REMARK  175  A    between atoms: _421  and  _423
REMARK  176  A    between atoms: _423  and  _424
REMARK  177  A    between atoms: _423  and  _426
REMARK  178  A    between atoms: _426  and  _427
REMARK  179  A    between atoms: _427  and  _428
REMARK  180  A    between atoms: _431  and  _433
REMARK  181  A    between atoms: _433  and  _434
REMARK  182  A    between atoms: _433  and  _436
REMARK  183  A    between atoms: _436  and  _437
REMARK  184  A    between atoms: _442  and  _443
REMARK  185  A    between atoms: _445  and  _447
REMARK  186  A    between atoms: _447  and  _448
REMARK  187  A    between atoms: _447  and  _450
REMARK  188  A    between atoms: _450  and  _451
REMARK  189  A    between atoms: _454  and  _456
REMARK  190  A    between atoms: _456  and  _457
REMARK  191  A    between atoms: _456  and  _459
REMARK  192  A    between atoms: _459  and  _460
REMARK  193  A    between atoms: _460  and  _461
REMARK  194  A    between atoms: _463  and  _465
REMARK  195  A    between atoms: _465  and  _466
REMARK  196  A    between atoms: _468  and  _470
REMARK  197  A    between atoms: _470  and  _471
REMARK  198  A    between atoms: _470  and  _473
REMARK  199  A    between atoms: _476  and  _478
REMARK  200  A    between atoms: _478  and  _479
REMARK  201  A    between atoms: _481  and  _483
REMARK  202  A    between atoms: _483  and  _484
REMARK  203  A    between atoms: _483  and  _486
REMARK  204  A    between atoms: _486  and  _487
REMARK  205  A    between atoms: _493  and  _495
REMARK  206  A    between atoms: _495  and  _496
REMARK  207  A    between atoms: _495  and  _498
REMARK  208  A    between atoms: _498  and  _499
REMARK  209  A    between atoms: _502  and  _504
REMARK  210  A    between atoms: _504  and  _505
REMARK  211  A    between atoms: _504  and  _507
REMARK  212  A    between atoms: _509  and  _511
REMARK  213  A    between atoms: _511  and  _512
REMARK  214  A    between atoms: _511  and  _514
REMARK  215  A    between atoms: _517  and  _519
REMARK  216  A    between atoms: _519  and  _520
REMARK  217  A    between atoms: _519  and  _522
REMARK  218  A    between atoms: _522  and  _523
REMARK  219  A    between atoms: _526  and  _528
REMARK  220  A    between atoms: _528  and  _529
REMARK  221  A    between atoms: _528  and  _531
REMARK  222  A    between atoms: _531  and  _532
REMARK  223  A    between atoms: _532  and  _533
REMARK  224  A    between atoms: _533  and  _534
REMARK                            x       y       z     vdW  Elec       q    Type
REMARK                         _______ _______ _______ _____ _____    ______ ____
ROOT
ATOM      1  C   VAL A   3       0.540  11.237  82.580  0.00  0.00    +0.241 C 
ATOM      2  N   GLY A   4      -0.368  11.121  83.545  0.00  0.00    -0.295 N 
ATOM      3  H   GLY A   4      -0.038  10.962  84.518  0.00  0.00    +0.150 HD
ATOM      4  O   VAL A   3       0.248  11.403  81.394  0.00  0.00    -0.273 OA
ENDROOT
BRANCH   2   5
ATOM      5  CA  GLY A   4      -1.798  11.206  83.304  0.00  0.00    +0.176 C 
BRANCH   5   6
ATOM      6  C   GLY A   4      -2.435  12.140  84.305  0.00  0.00    +0.243 C 
ATOM      7  O   GLY A   4      -3.426  11.803  84.958  0.00  0.00    -0.273 OA
ATOM      8  N   THR A   5      -1.837  13.319  84.416  0.00  0.00    -0.295 N 
ATOM      9  H   THR A   5      -1.065  13.533  83.753  0.00  0.00    +0.150 HD
BRANCH   8  10
ATOM     10  CA  THR A   5      -2.183  14.335  85.399  0.00  0.00    +0.176 C 
BRANCH  10  11
ATOM     11  C   THR A   5      -3.680  14.474  85.717  0.00  0.00    +0.243 C 
ATOM     12  O   THR A   5      -4.074  14.365  86.887  0.00  0.00    -0.273 OA
ATOM     13  N   ALA A   6      -4.498  14.681  84.680  0.00  0.00    -0.297 N 
ATOM     14  H   ALA A   6      -4.097  14.656  83.721  0.00  0.00    +0.150 HD
BRANCH  13  15
ATOM     15  CA  ALA A   6      -5.935  14.942  84.830  0.00  0.00    +0.149 C 
ATOM     16  CB  ALA A   6      -6.362  16.050  83.893  0.00  0.00    +0.031 C 
BRANCH  15  17
ATOM     17  C   ALA A   6      -6.814  13.707  84.607  0.00  0.00    +0.241 C 
ATOM     18  N   ALA A   7      -6.375  12.581  85.148  0.00  0.00    -0.298 N 
ATOM     19  H   ALA A   7      -5.477  12.593  85.673  0.00  0.00    +0.150 HD
ATOM     20  O   ALA A   6      -7.879  13.787  83.984  0.00  0.00    -0.273 OA
BRANCH  18  21
ATOM     21  CA  ALA A   7      -7.107  11.324  85.033  0.00  0.00    +0.137 C 
ATOM     22  CB  ALA A   7      -8.501  11.400  85.690  0.00  0.00    +0.030 C 
BRANCH  21  23
ATOM     23  C   ALA A   7      -7.206  10.833  83.594  0.00  0.00    +0.227 C 
ATOM     24  O   ALA A   7      -8.154  10.148  83.235  0.00  0.00    -0.286 OA
ENDBRANCH  21  23
ENDBRANCH  18  21
ENDBRANCH  15  17
ENDBRANCH  13  15
ENDBRANCH  10  11
BRANCH  10  25
ATOM     25  CB  THR A   5      -1.600  15.684  84.941  0.00  0.00    +0.137 C 
ATOM     26  CG2 THR A   5      -1.941  16.772  85.897  0.00  0.00    +0.034 C 
BRANCH  25  27
ATOM     27  OG1 THR A   5      -0.175  15.569  84.857  0.00  0.00    -0.382 OA
ATOM     28  HG1 THR A   5       0.208  16.433  84.563  0.00  0.00    +0.210 HD
ENDBRANCH  25  27
ENDBRANCH  10  25
ENDBRANCH   8  10
ENDBRANCH   5   6
ENDBRANCH   2   5
BRANCH   1  29
ATOM     29  CA  VAL A   3       1.995  11.099  83.019  0.00  0.00    +0.149 C 
BRANCH  29  32
ATOM     30  C   PRO A   2       2.719   8.839  82.550  0.00  0.00    +0.241 C 
ATOM     31  O   PRO A   2       2.169   8.387  83.558  0.00  0.00    -0.273 OA
ATOM     32  N   VAL A   3       2.667  10.115  82.201  0.00  0.00    -0.297 N 
ATOM     33  H   VAL A   3       3.121  10.417  81.316  0.00  0.00    +0.150 HD
BRANCH  30  40
ATOM     34  C   MET A   1       5.109   7.216  83.303  0.00  0.00    +0.242 C 
ATOM     35  O   MET A   1       5.429   8.386  83.515  0.00  0.00    -0.273 OA
ATOM     36  N   PRO A   2       4.202   6.886  82.363  0.00  0.00    -0.272 N 
ATOM     37  CD  PRO A   2       3.864   5.547  81.852  0.00  0.00    +0.094 C 
ATOM     38  CG  PRO A   2       3.301   5.850  80.471  0.00  0.00    +0.024 C 
ATOM     39  CB  PRO A   2       2.598   7.179  80.663  0.00  0.00    +0.031 C 
ATOM     40  CA  PRO A   2       3.521   7.948  81.612  0.00  0.00    +0.152 C 
BRANCH  34  41
ATOM     41  CA  MET A   1       5.756   6.097  84.099  0.00  0.00    +0.146 C 
BRANCH  41  42
ATOM     42  N   MET A   1       7.140   5.927  83.670  0.00  0.00    -0.238 NA
ATOM     43  H   MET A   1       7.821   6.681  83.893  0.00  0.00    +0.142 HD
ENDBRANCH  41  42
BRANCH  41  44
ATOM     44  CB  MET A   1       5.732   6.512  85.564  0.00  0.00    +0.038 C 
BRANCH  44  45
ATOM     45  CG  MET A   1       6.192   5.475  86.543  0.00  0.00    +0.060 C 
BRANCH  45  46
ATOM     46  SD  MET A   1       5.974   6.032  88.241  0.00  0.00    -0.139 S 
ATOM     47  CE  MET A   1       7.376   7.137  88.380  0.00  0.00    +0.069 C 
ENDBRANCH  45  46
ENDBRANCH  44  45
ENDBRANCH  41  44
ENDBRANCH  34  41
ENDBRANCH  30  40
ENDBRANCH  29  32
BRANCH  29  48
ATOM     48  CB  VAL A   3       2.739  12.435  82.941  0.00  0.00    +0.027 C 
ATOM     49  CG2 VAL A   3       1.934  13.544  83.588  0.00  0.00    +0.002 C 
ATOM     50  CG1 VAL A   3       4.127  12.299  83.586  0.00  0.00    +0.002 C 
ENDBRANCH  29  48
ENDBRANCH   1  29
TORSDOF 19
REMARK  Name = ../refined-set-2016/4lbu/4lbu_pocket.pdb
REMARK  224 active torsions:
REMARK  status: ('A' for Active; 'I' for Inactive)
REMARK    1  A    between atoms: _1  and  _3
REMARK    2  A    between atoms: _3  and  _4
REMARK    3  A    between atoms: _3  and  _6
REMARK    4  A    between atoms: _6  and  _7
REMARK    5  A    between atoms: _7  and  _8
REMARK    6  A    between atoms: _11  and  _12
REMARK    7  A    between atoms: _17  and  _19
REMARK    8  A    between atoms: _19  and  _20
REMARK    9  A    between atoms: _19  and  _22
REMARK   10  A    between atoms: _25  and  _27
REMARK   11  A    between atoms: _27  and  _28
REMARK   12  A    between atoms: _30  and  _32
REMARK   13  A    between atoms: _32  and  _33
REMARK   14  A    between atoms: _32  and  _35
REMARK   15  A    between atoms: _35  and  _36
REMARK   16  A    between atoms: _39  and  _41
REMARK   17  A    between atoms: _41  and  _42
REMARK   18  A    between atoms: _45  and  _47
REMARK   19  A    between atoms: _47  and  _48
REMARK   20  A    between atoms: _51  and  _53
REMARK   21  A    between atoms: _53  and  _54
REMARK   22  A    between atoms: _53  and  _56
REMARK   23  A    between atoms: _56  and  _57
REMARK   24  A    between atoms: _60  and  _62
REMARK   25  A    between atoms: _62  and  _63
REMARK   26  A    between atoms: _62  and  _65
REMARK   27  A    between atoms: _65  and  _66
REMARK   28  A    between atoms: _69  and  _71
REMARK   29  A    between atoms: _71  and  _72
REMARK   30  A    between atoms: _74  and  _76
REMARK   31  A    between atoms: _76  and  _77
REMARK   32  A    between atoms: _76  and  _79
REMARK   33  A    between atoms: _79  and  _80
REMARK   34  A    between atoms: _85  and  _87
REMARK   35  A    between atoms: _87  and  _88
REMARK   36  A    between atoms: _87  and  _90
REMARK   37  A    between atoms: _90  and  _91
REMARK   38  A    between atoms: _94  and  _96
REMARK   39  A    between atoms: _96  and  _97
REMARK   40  A    between atoms: _96  and  _99
REMARK   41  A    between atoms: _99  and  _100
REMARK   42  A    between atoms: _105  and  _106
REMARK   43  A    between atoms: _108  and  _110
REMARK   44  A    between atoms: _110  and  _111
REMARK   45  A    between atoms: _110  and  _113
REMARK   46  A    between atoms: _113  and  _114
REMARK   47  A    between atoms: _119  and  _121
REMARK   48  A    between atoms: _121  and  _122
REMARK   49  A    between atoms: _121  and  _124
REMARK   50  A    between atoms: _124  and  _125
REMARK   51  A    between atoms: _128  and  _130
REMARK   52  A    between atoms: _130  and  _131
REMARK   53  A    between atoms: _130  and  _133
REMARK   54  A    between atoms: _133  and  _134
REMARK   55  A    between atoms: _137  and  _139
REMARK   56  A    between atoms: _139  and  _140
REMARK   57  A    between atoms: _139  and  _142
REMARK   58  A    between atoms: _142  and  _143
REMARK   59  A    between atoms: _146  and  _148
REMARK   60  A    between atoms: _148  and  _149
REMARK   61  A    between atoms: _148  and  _151
REMARK   62  A    between atoms: _151  and  _152
REMARK   63  A    between atoms: _155  and  _157
REMARK   64  A    between atoms: _157  and  _158
REMARK   65  A    between atoms: _157  and  _160
REMARK   66  A    between atoms: _160  and  _161
REMARK   67  A    between atoms: _163  and  _165
REMARK   68  A    between atoms: _165  and  _166
REMARK   69  A    between atoms: _168  and  _170
REMARK   70  A    between atoms: _170  and  _171
REMARK   71  A    between atoms: _173  and  _175
REMARK   72  A    between atoms: _175  and  _176
REMARK   73  A    between atoms: _175  and  _178
REMARK   74  A    between atoms: _178  and  _179
REMARK   75  A    between atoms: _184  and  _185
REMARK   76  A    between atoms: _187  and  _189
REMARK   77  A    between atoms: _189  and  _190
REMARK   78  A    between atoms: _189  and  _192
REMARK   79  A    between atoms: _192  and  _193
REMARK   80  A    between atoms: _193  and  _194
REMARK   81  A    between atoms: _199  and  _201
REMARK   82  A    between atoms: _201  and  _202
REMARK   83  A    between atoms: _201  and  _204
REMARK   84  A    between atoms: _207  and  _209
REMARK   85  A    between atoms: _209  and  _210
REMARK   86  A    between atoms: _209  and  _212
REMARK   87  A    between atoms: _212  and  _213
REMARK   88  A    between atoms: _213  and  _214
REMARK   89  A    between atoms: _216  and  _218
REMARK   90  A    between atoms: _218  and  _219
REMARK   91  A    between atoms: _218  and  _221
REMARK   92  A    between atoms: _221  and  _222
REMARK   93  A    between atoms: _224  and  _226
REMARK   94  A    between atoms: _226  and  _227
REMARK   95  A    between atoms: _226  and  _229
REMARK   96  A    between atoms: _229  and  _230
REMARK   97  A    between atoms: _230  and  _231
REMARK   98  A    between atoms: _236  and  _238
REMARK   99  A    between atoms: _238  and  _239
REMARK  100  A    between atoms: _238  and  _241
REMARK  101  A    between atoms: _241  and  _242
REMARK  102  A    between atoms: _242  and  _243
REMARK  103  A    between atoms: _245  and  _247
REMARK  104  A    between atoms: _247  and  _248
REMARK  105  A    between atoms: _251  and  _253
REMARK  106  A    between atoms: _253  and  _254
REMARK  107  A    between atoms: _253  and  _256
REMARK  108  A    between atoms: _256  and  _257
REMARK  109  A    between atoms: _263  and  _265
REMARK  110  A    between atoms: _265  and  _266
REMARK  111  A    between atoms: _265  and  _268
REMARK  112  A    between atoms: _268  and  _269
REMARK  113  A    between atoms: _272  and  _274
REMARK  114  A    between atoms: _274  and  _275
REMARK  115  A    between atoms: _274  and  _277
REMARK  116  A    between atoms: _277  and  _278
REMARK  117  A    between atoms: _278  and  _279
REMARK  118  A    between atoms: _282  and  _284
REMARK  119  A    between atoms: _284  and  _285
REMARK  120  A    between atoms: _284  and  _287
REMARK  121  A    between atoms: _289  and  _291
REMARK  122  A    between atoms: _291  and  _292
REMARK  123  A    between atoms: _291  and  _294
REMARK  124  A    between atoms: _294  and  _295
REMARK  125  A    between atoms: _298  and  _300
REMARK  126  A    between atoms: _300  and  _301
REMARK  127  A    between atoms: _300  and  _303
REMARK  128  A    between atoms: _303  and  _304
REMARK  129  A    between atoms: _306  and  _308
REMARK  130  A    between atoms: _308  and  _309
REMARK  131  A    between atoms: _308  and  _311
REMARK  132  A    between atoms: _311  and  _312
REMARK  133  A    between atoms: _315  and  _317
REMARK  134  A    between atoms: _317  and  _318
REMARK  135  A    between atoms: _317  and  _320
REMARK  136  A    between atoms: _320  and  _321
REMARK  137  A    between atoms: _321  and  _322
REMARK  138  A    between atoms: _327  and  _329
REMARK  139  A    between atoms: _329  and  _330
REMARK  140  A    between atoms: _329  and  _332
REMARK  141  A    between atoms: _332  and  _333
REMARK  142  A    between atoms: _333  and  _334
REMARK  143  A    between atoms: _339  and  _341
REMARK  144  A    between atoms: _341  and  _342
REMARK  145  A    between atoms: _344  and  _346
REMARK  146  A    between atoms: _346  and  _347
REMARK  147  A    between atoms: _346  and  _349
REMARK  148  A    between atoms: _349  and  _350
REMARK  149  A    between atoms: _352  and  _354
REMARK  150  A    between atoms: _354  and  _355
REMARK  151  A    between atoms: _354  and  _357
REMARK  152  A    between atoms: _357  and  _358
REMARK  153  A    between atoms: _358  and  _359
REMARK  154  A    between atoms: _359  and  _360
REMARK  155  A    between atoms: _369  and  _371
REMARK  156  A    between atoms: _371  and  _372
REMARK  157  A    between atoms: _375  and  _377
REMARK  158  A    between atoms: _377  and  _378
REMARK  159  A    between atoms: _377  and  _380
REMARK  160  A    between atoms: _383  and  _385
REMARK  161  A    between atoms: _385  and  _386
REMARK  162  A    between atoms: _388  and  _390
REMARK  163  A    between atoms: _390  and  _391
REMARK  164  A    between atoms: _393  and  _395
REMARK  165  A    between atoms: _395  and  _396
REMARK  166  A    between atoms: _395  and  _398
REMARK  167  A    between atoms: _398  and  _399
REMARK  168  A    between atoms: _402  and  _404
REMARK  169  A    between atoms: _404  and  _405
REMARK  170  A    between atoms: _408  and  _410
REMARK  171  A    between atoms: _410  and  _411
REMARK  172  A    between atoms: _410  and  _413
REMARK  173  A    between atoms: _416  and  _418
REMARK  174  A    between atoms: _418  and  _419
REMARK  175  A    between atoms: _421  and  _423
REMARK  176  A    between atoms: _423  and  _424
REMARK  177  A    between atoms: _423  and  _426
REMARK  178  A    between atoms: _426  and  _427
REMARK  179  A    between atoms: _427  and  _428
REMARK  180  A    between atoms: _431  and  _433
REMARK  181  A    between atoms: _433  and  _434
REMARK  182  A    between atoms: _433  and  _436
REMARK  183  A    between atoms: _436  and  _437
REMARK  184  A    between atoms: _442  and  _443
REMARK  185  A    between atoms: _445  and  _447
REMARK  186  A    between atoms: _447  and  _448
REMARK  187  A    between atoms: _447  and  _450
REMARK  188  A    between atoms: _450  and  _451
REMARK  189  A    between atoms: _454  and  _456
REMARK  190  A    between atoms: _456  and  _457
REMARK  191  A    between atoms: _456  and  _459
REMARK  192  A    between atoms: _459  and  _460
REMARK  193  A    between atoms: _460  and  _461
REMARK  194  A    between atoms: _463  and  _465
REMARK  195  A    between atoms: _465  and  _466
REMARK  196  A    between atoms: _468  and  _470
REMARK  197  A    between atoms: _470  and  _471
REMARK  198  A    between atoms: _470  and  _473
REMARK  199  A    between atoms: _476  and  _478
REMARK  200  A    between atoms: _478  and  _479
REMARK  201  A    between atoms: _481  and  _483
REMARK  202  A    between atoms: _483  and  _484
REMARK  203  A    between atoms: _483  and  _486
REMARK  204  A    between atoms: _486  and  _487
REMARK  205  A    between atoms: _493  and  _495
REMARK  206  A    between atoms: _495  and  _496
REMARK  207  A    between atoms: _495  and  _498
REMARK  208  A    between atoms: _498  and  _499
REMARK  209  A    between atoms: _502  and  _504
REMARK  210  A    between atoms: _504  and  _505
REMARK  211  A    between atoms: _504  and  _507
REMARK  212  A    between atoms: _509  and  _511
REMARK  213  A    between atoms: _511  and  _512
REMARK  214  A    between atoms: _511  and  _514
REMARK  215  A    between atoms: _517  and  _519
REMARK  216  A    between atoms: _519  and  _520
REMARK  217  A    between atoms: _519  and  _522
REMARK  218  A    between atoms: _522  and  _523
REMARK  219  A    between atoms: _526  and  _528
REMARK  220  A    between atoms: _528  and  _529
REMARK  221  A    between atoms: _528  and  _531
REMARK  222  A    between atoms: _531  and  _532
REMARK  223  A    between atoms: _532  and  _533
REMARK  224  A    between atoms: _533  and  _534
REMARK                            x       y       z     vdW  Elec       q    Type
REMARK                         _______ _______ _______ _____ _____    ______ ____
ROOT
ATOM      1  CA  THR A   5      -2.910  15.608  93.677  0.00  0.00    +0.176 C 
ENDROOT
BRANCH   1   3
ATOM      2  C   ASN A   4      -2.459  15.092  91.312  0.00  0.00    +0.241 C 
ATOM      3  N   THR A   5      -2.071  15.131  92.586  0.00  0.00    -0.295 N 
ATOM      4  H   THR A   5      -1.112  14.801  92.815  0.00  0.00    +0.150 HD
ATOM      5  O   ASN A   4      -3.566  15.452  90.925  0.00  0.00    -0.273 OA
BRANCH   2   6
ATOM      6  CA  ASN A   4      -1.431  14.564  90.329  0.00  0.00    +0.158 C 
BRANCH   6   9
ATOM      7  C   GLY A   3      -1.218  12.341  89.389  0.00  0.00    +0.243 C 
ATOM      8  O   GLY A   3      -0.150  12.184  89.977  0.00  0.00    -0.273 OA
ATOM      9  N   ASN A   4      -1.941  13.445  89.540  0.00  0.00    -0.297 N 
ATOM     10  H   ASN A   4      -2.878  13.513  89.093  0.00  0.00    +0.150 HD
BRANCH   7  11
ATOM     11  CA  GLY A   3      -1.773  11.254  88.475  0.00  0.00    +0.176 C 
BRANCH  11  13
ATOM     12  C   LEU A   2      -0.257   9.866  87.167  0.00  0.00    +0.241 C 
ATOM     13  N   GLY A   3      -0.796  10.185  88.336  0.00  0.00    -0.295 N 
ATOM     14  H   GLY A   3      -0.510   9.653  89.183  0.00  0.00    +0.150 HD
ATOM     15  O   LEU A   2      -0.691  10.265  86.090  0.00  0.00    -0.273 OA
BRANCH  12  16
ATOM     16  CA  LEU A   2       0.990   9.024  87.239  0.00  0.00    +0.149 C 
BRANCH  16  19
ATOM     17  C   ILE A   1       0.937   6.689  86.532  0.00  0.00    +0.238 C 
ATOM     18  O   ILE A   1       0.754   6.271  87.686  0.00  0.00    -0.274 OA
ATOM     19  N   LEU A   2       1.066   7.979  86.229  0.00  0.00    -0.297 N 
ATOM     20  H   LEU A   2       1.226   8.249  85.238  0.00  0.00    +0.150 HD
BRANCH  17  21
ATOM     21  CA  ILE A   1       1.017   5.721  85.360  0.00  0.00    +0.145 C 
BRANCH  21  22
ATOM     22  CB  ILE A   1      -0.243   5.883  84.475  0.00  0.00    +0.025 C 
ATOM     23  CG2 ILE A   1      -0.143   4.991  83.241  0.00  0.00    +0.002 C 
BRANCH  22  24
ATOM     24  CG1 ILE A   1      -1.520   5.612  85.274  0.00  0.00    +0.002 C 
ATOM     25  CD1 ILE A   1      -2.783   5.923  84.499  0.00  0.00    +0.000 C 
ENDBRANCH  22  24
ENDBRANCH  21  22
BRANCH  21  26
ATOM     26  N   ILE A   1       1.164   4.358  85.877  0.00  0.00    -0.238 NA
ATOM     27  H   ILE A   1       0.490   4.018  86.593  0.00  0.00    +0.142 HD
ENDBRANCH  21  26
ENDBRANCH  17  21
ENDBRANCH  16  19
BRANCH  16  28
ATOM     28  CB  LEU A   2       2.141   9.999  87.088  0.00  0.00    +0.029 C 
BRANCH  28  29
ATOM     29  CG  LEU A   2       3.308   9.720  87.990  0.00  0.00    +0.002 C 
ATOM     30  CD2 LEU A   2       4.192  10.953  88.120  0.00  0.00    +0.000 C 
ATOM     31  CD1 LEU A   2       4.001   8.647  87.329  0.00  0.00    +0.000 C 
ENDBRANCH  28  29
ENDBRANCH  16  28
ENDBRANCH  12  16
ENDBRANCH  11  13
ENDBRANCH   7  11
ENDBRANCH   6   9
BRANCH   6  32
ATOM     32  CB  ASN A   4      -0.947  15.686  89.407  0.00  0.00    +0.114 C 
BRANCH  32  33
ATOM     33  CG  ASN A   4      -0.230  16.793  90.161  0.00  0.00    +0.222 C 
ATOM     34  OD1 ASN A   4      -0.835  17.503  90.961  0.00  0.00    -0.275 OA
ATOM     35  ND2 ASN A   4       1.057  16.960  89.894  0.00  0.00    -0.329 N 
ATOM     36 HD21 ASN A   4       1.593  17.714  90.369  0.00  0.00    +0.145 HD
ATOM     37 HD22 ASN A   4       1.531  16.337  89.210  0.00  0.00    +0.145 HD
ENDBRANCH  32  33
ENDBRANCH   6  32
ENDBRANCH   2   6
ENDBRANCH   1   3
BRANCH   1  38
ATOM     38  C   THR A   5      -3.466  16.997  93.397  0.00  0.00    +0.243 C 
ATOM     39  O   THR A   5      -4.664  17.247  93.581  0.00  0.00    -0.273 OA
ATOM     40  N   TYR A   6      -2.594  17.909  92.973  0.00  0.00    -0.297 N 
ATOM     41  H   TYR A   6      -1.608  17.630  92.793  0.00  0.00    +0.150 HD
BRANCH  40  42
ATOM     42  CA  TYR A   6      -2.999  19.291  92.758  0.00  0.00    +0.153 C 
BRANCH  42  43
ATOM     43  C   TYR A   6      -4.061  19.424  91.662  0.00  0.00    +0.241 C 
ATOM     44  O   TYR A   6      -5.108  20.042  91.858  0.00  0.00    -0.273 OA
ATOM     45  N   HIS A   7      -3.803  18.847  90.497  0.00  0.00    -0.297 N 
ATOM     46  H   HIS A   7      -2.938  18.283  90.370  0.00  0.00    +0.150 HD
BRANCH  45  47
ATOM     47  CA  HIS A   7      -4.744  19.011  89.394  0.00  0.00    +0.155 C 
BRANCH  47  48
ATOM     48  C   HIS A   7      -6.085  18.331  89.649  0.00  0.00    +0.241 C 
ATOM     49  N   LEU A   8      -6.038  17.132  90.214  0.00  0.00    -0.298 N 
ATOM     50  H   LEU A   8      -5.121  16.729  90.493  0.00  0.00    +0.150 HD
ATOM     51  O   HIS A   7      -7.148  18.901  89.367  0.00  0.00    -0.273 OA
BRANCH  49  52
ATOM     52  CA  LEU A   8      -7.259  16.376  90.446  0.00  0.00    +0.137 C 
BRANCH  52  53
ATOM     53  C   LEU A   8      -8.093  16.970  91.576  0.00  0.00    +0.227 C 
ATOM     54  O   LEU A   8      -9.315  16.838  91.587  0.00  0.00    -0.286 OA
ENDBRANCH  52  53
BRANCH  52  55
ATOM     55  CB  LEU A   8      -6.934  14.904  90.701  0.00  0.00    +0.028 C 
BRANCH  55  56
ATOM     56  CG  LEU A   8      -6.380  14.197  89.464  0.00  0.00    +0.002 C 
ATOM     57  CD2 LEU A   8      -5.844  12.810  89.819  0.00  0.00    +0.000 C 
ATOM     58  CD1 LEU A   8      -7.457  14.107  88.391  0.00  0.00    +0.000 C 
ENDBRANCH  55  56
ENDBRANCH  52  55
ENDBRANCH  49  52
ENDBRANCH  47  48
BRANCH  47  59
ATOM     59  CB  HIS A   7      -4.123  18.537  88.091  0.00  0.00    +0.076 C 
BRANCH  59  60
ATOM     60  CG  HIS A   7      -2.850  19.245  87.757  0.00  0.00    +0.082 A 
ATOM     61  ND1 HIS A   7      -1.642  18.898  88.321  0.00  0.00    -0.227 NA
ATOM     62  CE1 HIS A   7      -0.696  19.691  87.852  0.00  0.00    +0.199 A 
ATOM     63  NE2 HIS A   7      -1.249  20.548  87.013  0.00  0.00    -0.221 NA
ATOM     64  CD2 HIS A   7      -2.597  20.289  86.934  0.00  0.00    +0.115 A 
ENDBRANCH  59  60
ENDBRANCH  47  59
ENDBRANCH  45  47
ENDBRANCH  42  43
BRANCH  42  65
ATOM     65  CB  TYR A   6      -1.790  20.174  92.425  0.00  0.00    +0.055 C 
BRANCH  65  66
ATOM     66  CG  TYR A   6      -2.198  21.570  92.014  0.00  0.00    -0.020 A 
ATOM     67  CD2 TYR A   6      -2.434  22.553  92.966  0.00  0.00    -0.001 A 
ATOM     68  CE2 TYR A   6      -2.824  23.824  92.597  0.00  0.00    +0.036 A 
ATOM     69  CZ  TYR A   6      -2.995  24.125  91.260  0.00  0.00    +0.134 A 
ATOM     70  CE1 TYR A   6      -2.775  23.168  90.292  0.00  0.00    +0.036 A 
ATOM     71  CD1 TYR A   6      -2.384  21.896  90.671  0.00  0.00    -0.001 A 
BRANCH  69  72
ATOM     72  OH  TYR A   6      -3.386  25.392  90.893  0.00  0.00    -0.506 OA
ATOM     73  HH  TYR A   6      -4.245  25.342  90.403  0.00  0.00    +0.292 HD
ENDBRANCH  69  72
ENDBRANCH  65  66
ENDBRANCH  42  65
ENDBRANCH  40  42
ENDBRANCH   1  38
BRANCH   1  74
ATOM     74  CB  THR A   5      -2.087  15.664  94.972  0.00  0.00    +0.137 C 
ATOM     75  CG2 THR A   5      -2.847  16.354  96.093  0.00  0.00    +0.034 C 
BRANCH  74  76
ATOM     76  OG1 THR A   5      -1.769  14.332  95.372  0.00  0.00    -0.382 OA
ATOM     77  HG1 THR A   5      -1.243  13.891  94.658  0.00  0.00    +0.210 HD
ENDBRANCH  74  76
ENDBRANCH   1  74
TORSDOF 31
REMARK  Name = ../refined-set-2016/4lbu/4lbu_pocket.pdb
REMARK  224 active torsions:
REMARK  status: ('A' for Active; 'I' for Inactive)
REMARK    1  A    between atoms: _1  and  _3
REMARK    2  A    between atoms: _3  and  _4
REMARK    3  A    between atoms: _3  and  _6
REMARK    4  A    between atoms: _6  and  _7
REMARK    5  A    between atoms: _7  and  _8
REMARK    6  A    between atoms: _11  and  _12
REMARK    7  A    between atoms: _17  and  _19
REMARK    8  A    between atoms: _19  and  _20
REMARK    9  A    between atoms: _19  and  _22
REMARK   10  A    between atoms: _25  and  _27
REMARK   11  A    between atoms: _27  and  _28
REMARK   12  A    between atoms: _30  and  _32
REMARK   13  A    between atoms: _32  and  _33
REMARK   14  A    between atoms: _32  and  _35
REMARK   15  A    between atoms: _35  and  _36
REMARK   16  A    between atoms: _39  and  _41
REMARK   17  A    between atoms: _41  and  _42
REMARK   18  A    between atoms: _45  and  _47
REMARK   19  A    between atoms: _47  and  _48
REMARK   20  A    between atoms: _51  and  _53
REMARK   21  A    between atoms: _53  and  _54
REMARK   22  A    between atoms: _53  and  _56
REMARK   23  A    between atoms: _56  and  _57
REMARK   24  A    between atoms: _60  and  _62
REMARK   25  A    between atoms: _62  and  _63
REMARK   26  A    between atoms: _62  and  _65
REMARK   27  A    between atoms: _65  and  _66
REMARK   28  A    between atoms: _69  and  _71
REMARK   29  A    between atoms: _71  and  _72
REMARK   30  A    between atoms: _74  and  _76
REMARK   31  A    between atoms: _76  and  _77
REMARK   32  A    between atoms: _76  and  _79
REMARK   33  A    between atoms: _79  and  _80
REMARK   34  A    between atoms: _85  and  _87
REMARK   35  A    between atoms: _87  and  _88
REMARK   36  A    between atoms: _87  and  _90
REMARK   37  A    between atoms: _90  and  _91
REMARK   38  A    between atoms: _94  and  _96
REMARK   39  A    between atoms: _96  and  _97
REMARK   40  A    between atoms: _96  and  _99
REMARK   41  A    between atoms: _99  and  _100
REMARK   42  A    between atoms: _105  and  _106
REMARK   43  A    between atoms: _108  and  _110
REMARK   44  A    between atoms: _110  and  _111
REMARK   45  A    between atoms: _110  and  _113
REMARK   46  A    between atoms: _113  and  _114
REMARK   47  A    between atoms: _119  and  _121
REMARK   48  A    between atoms: _121  and  _122
REMARK   49  A    between atoms: _121  and  _124
REMARK   50  A    between atoms: _124  and  _125
REMARK   51  A    between atoms: _128  and  _130
REMARK   52  A    between atoms: _130  and  _131
REMARK   53  A    between atoms: _130  and  _133
REMARK   54  A    between atoms: _133  and  _134
REMARK   55  A    between atoms: _137  and  _139
REMARK   56  A    between atoms: _139  and  _140
REMARK   57  A    between atoms: _139  and  _142
REMARK   58  A    between atoms: _142  and  _143
REMARK   59  A    between atoms: _146  and  _148
REMARK   60  A    between atoms: _148  and  _149
REMARK   61  A    between atoms: _148  and  _151
REMARK   62  A    between atoms: _151  and  _152
REMARK   63  A    between atoms: _155  and  _157
REMARK   64  A    between atoms: _157  and  _158
REMARK   65  A    between atoms: _157  and  _160
REMARK   66  A    between atoms: _160  and  _161
REMARK   67  A    between atoms: _163  and  _165
REMARK   68  A    between atoms: _165  and  _166
REMARK   69  A    between atoms: _168  and  _170
REMARK   70  A    between atoms: _170  and  _171
REMARK   71  A    between atoms: _173  and  _175
REMARK   72  A    between atoms: _175  and  _176
REMARK   73  A    between atoms: _175  and  _178
REMARK   74  A    between atoms: _178  and  _179
REMARK   75  A    between atoms: _184  and  _185
REMARK   76  A    between atoms: _187  and  _189
REMARK   77  A    between atoms: _189  and  _190
REMARK   78  A    between atoms: _189  and  _192
REMARK   79  A    between atoms: _192  and  _193
REMARK   80  A    between atoms: _193  and  _194
REMARK   81  A    between atoms: _199  and  _201
REMARK   82  A    between atoms: _201  and  _202
REMARK   83  A    between atoms: _201  and  _204
REMARK   84  A    between atoms: _207  and  _209
REMARK   85  A    between atoms: _209  and  _210
REMARK   86  A    between atoms: _209  and  _212
REMARK   87  A    between atoms: _212  and  _213
REMARK   88  A    between atoms: _213  and  _214
REMARK   89  A    between atoms: _216  and  _218
REMARK   90  A    between atoms: _218  and  _219
REMARK   91  A    between atoms: _218  and  _221
REMARK   92  A    between atoms: _221  and  _222
REMARK   93  A    between atoms: _224  and  _226
REMARK   94  A    between atoms: _226  and  _227
REMARK   95  A    between atoms: _226  and  _229
REMARK   96  A    between atoms: _229  and  _230
REMARK   97  A    between atoms: _230  and  _231
REMARK   98  A    between atoms: _236  and  _238
REMARK   99  A    between atoms: _238  and  _239
REMARK  100  A    between atoms: _238  and  _241
REMARK  101  A    between atoms: _241  and  _242
REMARK  102  A    between atoms: _242  and  _243
REMARK  103  A    between atoms: _245  and  _247
REMARK  104  A    between atoms: _247  and  _248
REMARK  105  A    between atoms: _251  and  _253
REMARK  106  A    between atoms: _253  and  _254
REMARK  107  A    between atoms: _253  and  _256
REMARK  108  A    between atoms: _256  and  _257
REMARK  109  A    between atoms: _263  and  _265
REMARK  110  A    between atoms: _265  and  _266
REMARK  111  A    between atoms: _265  and  _268
REMARK  112  A    between atoms: _268  and  _269
REMARK  113  A    between atoms: _272  and  _274
REMARK  114  A    between atoms: _274  and  _275
REMARK  115  A    between atoms: _274  and  _277
REMARK  116  A    between atoms: _277  and  _278
REMARK  117  A    between atoms: _278  and  _279
REMARK  118  A    between atoms: _282  and  _284
REMARK  119  A    between atoms: _284  and  _285
REMARK  120  A    between atoms: _284  and  _287
REMARK  121  A    between atoms: _289  and  _291
REMARK  122  A    between atoms: _291  and  _292
REMARK  123  A    between atoms: _291  and  _294
REMARK  124  A    between atoms: _294  and  _295
REMARK  125  A    between atoms: _298  and  _300
REMARK  126  A    between atoms: _300  and  _301
REMARK  127  A    between atoms: _300  and  _303
REMARK  128  A    between atoms: _303  and  _304
REMARK  129  A    between atoms: _306  and  _308
REMARK  130  A    between atoms: _308  and  _309
REMARK  131  A    between atoms: _308  and  _311
REMARK  132  A    between atoms: _311  and  _312
REMARK  133  A    between atoms: _315  and  _317
REMARK  134  A    between atoms: _317  and  _318
REMARK  135  A    between atoms: _317  and  _320
REMARK  136  A    between atoms: _320  and  _321
REMARK  137  A    between atoms: _321  and  _322
REMARK  138  A    between atoms: _327  and  _329
REMARK  139  A    between atoms: _329  and  _330
REMARK  140  A    between atoms: _329  and  _332
REMARK  141  A    between atoms: _332  and  _333
REMARK  142  A    between atoms: _333  and  _334
REMARK  143  A    between atoms: _339  and  _341
REMARK  144  A    between atoms: _341  and  _342
REMARK  145  A    between atoms: _344  and  _346
REMARK  146  A    between atoms: _346  and  _347
REMARK  147  A    between atoms: _346  and  _349
REMARK  148  A    between atoms: _349  and  _350
REMARK  149  A    between atoms: _352  and  _354
REMARK  150  A    between atoms: _354  and  _355
REMARK  151  A    between atoms: _354  and  _357
REMARK  152  A    between atoms: _357  and  _358
REMARK  153  A    between atoms: _358  and  _359
REMARK  154  A    between atoms: _359  and  _360
REMARK  155  A    between atoms: _369  and  _371
REMARK  156  A    between atoms: _371  and  _372
REMARK  157  A    between atoms: _375  and  _377
REMARK  158  A    between atoms: _377  and  _378
REMARK  159  A    between atoms: _377  and  _380
REMARK  160  A    between atoms: _383  and  _385
REMARK  161  A    between atoms: _385  and  _386
REMARK  162  A    between atoms: _388  and  _390
REMARK  163  A    between atoms: _390  and  _391
REMARK  164  A    between atoms: _393  and  _395
REMARK  165  A    between atoms: _395  and  _396
REMARK  166  A    between atoms: _395  and  _398
REMARK  167  A    between atoms: _398  and  _399
REMARK  168  A    between atoms: _402  and  _404
REMARK  169  A    between atoms: _404  and  _405
REMARK  170  A    between atoms: _408  and  _410
REMARK  171  A    between atoms: _410  and  _411
REMARK  172  A    between atoms: _410  and  _413
REMARK  173  A    between atoms: _416  and  _418
REMARK  174  A    between atoms: _418  and  _419
REMARK  175  A    between atoms: _421  and  _423
REMARK  176  A    between atoms: _423  and  _424
REMARK  177  A    between atoms: _423  and  _426
REMARK  178  A    between atoms: _426  and  _427
REMARK  179  A    between atoms: _427  and  _428
REMARK  180  A    between atoms: _431  and  _433
REMARK  181  A    between atoms: _433  and  _434
REMARK  182  A    between atoms: _433  and  _436
REMARK  183  A    between atoms: _436  and  _437
REMARK  184  A    between atoms: _442  and  _443
REMARK  185  A    between atoms: _445  and  _447
REMARK  186  A    between atoms: _447  and  _448
REMARK  187  A    between atoms: _447  and  _450
REMARK  188  A    between atoms: _450  and  _451
REMARK  189  A    between atoms: _454  and  _456
REMARK  190  A    between atoms: _456  and  _457
REMARK  191  A    between atoms: _456  and  _459
REMARK  192  A    between atoms: _459  and  _460
REMARK  193  A    between atoms: _460  and  _461
REMARK  194  A    between atoms: _463  and  _465
REMARK  195  A    between atoms: _465  and  _466
REMARK  196  A    between atoms: _468  and  _470
REMARK  197  A    between atoms: _470  and  _471
REMARK  198  A    between atoms: _470  and  _473
REMARK  199  A    between atoms: _476  and  _478
REMARK  200  A    between atoms: _478  and  _479
REMARK  201  A    between atoms: _481  and  _483
REMARK  202  A    between atoms: _483  and  _484
REMARK  203  A    between atoms: _483  and  _486
REMARK  204  A    between atoms: _486  and  _487
REMARK  205  A    between atoms: _493  and  _495
REMARK  206  A    between atoms: _495  and  _496
REMARK  207  A    between atoms: _495  and  _498
REMARK  208  A    between atoms: _498  and  _499
REMARK  209  A    between atoms: _502  and  _504
REMARK  210  A    between atoms: _504  and  _505
REMARK  211  A    between atoms: _504  and  _507
REMARK  212  A    between atoms: _509  and  _511
REMARK  213  A    between atoms: _511  and  _512
REMARK  214  A    between atoms: _511  and  _514
REMARK  215  A    between atoms: _517  and  _519
REMARK  216  A    between atoms: _519  and  _520
REMARK  217  A    between atoms: _519  and  _522
REMARK  218  A    between atoms: _522  and  _523
REMARK  219  A    between atoms: _526  and  _528
REMARK  220  A    between atoms: _528  and  _529
REMARK  221  A    between atoms: _528  and  _531
REMARK  222  A    between atoms: _531  and  _532
REMARK  223  A    between atoms: _532  and  _533
REMARK  224  A    between atoms: _533  and  _534
REMARK                            x       y       z     vdW  Elec       q    Type
REMARK                         _______ _______ _______ _____ _____    ______ ____
ROOT
ATOM      1  CA  TYR A   7       6.078  20.768  92.283  0.00  0.00    +0.153 C 
ENDROOT
BRANCH   1   2
ATOM      2  C   TYR A   7       5.270  22.020  91.972  0.00  0.00    +0.241 C 
ATOM      3  N   GLN A   8       3.948  21.912  92.076  0.00  0.00    -0.297 N 
ATOM      4  H   GLN A   8       3.531  20.998  92.346  0.00  0.00    +0.150 HD
ATOM      5  O   TYR A   7       5.831  23.068  91.638  0.00  0.00    -0.273 OA
BRANCH   3   6
ATOM      6  CA  GLN A   8       3.070  23.052  91.818  0.00  0.00    +0.149 C 
BRANCH   6   7
ATOM      7  C   GLN A   8       3.254  24.171  92.854  0.00  0.00    +0.241 C 
ATOM      8  N   VAL A   9       3.703  23.813  94.056  0.00  0.00    -0.297 N 
ATOM      9  H   VAL A   9       3.793  22.802  94.285  0.00  0.00    +0.150 HD
ATOM     10  O   GLN A   8       3.018  25.346  92.555  0.00  0.00    -0.273 OA
BRANCH   8  11
ATOM     11  CA  VAL A   9       4.073  24.809  95.062  0.00  0.00    +0.149 C 
BRANCH  11  12
ATOM     12  C   VAL A   9       5.109  25.767  94.467  0.00  0.00    +0.241 C 
ATOM     13  O   VAL A   9       5.098  26.969  94.735  0.00  0.00    -0.273 OA
ATOM     14  N   MET A  10       5.981  25.226  93.623  0.00  0.00    -0.297 N 
ATOM     15  H   MET A  10       5.923  24.206  93.429  0.00  0.00    +0.150 HD
BRANCH  14  16
ATOM     16  CA  MET A  10       7.018  26.012  92.958  0.00  0.00    +0.149 C 
BRANCH  16  17
ATOM     17  C   MET A  10       6.523  26.623  91.649  0.00  0.00    +0.241 C 
ATOM     18  O   MET A  10       6.609  27.833  91.439  0.00  0.00    -0.273 OA
ATOM     19  N   SER A  11       6.018  25.770  90.761  0.00  0.00    -0.296 N 
ATOM     20  H   SER A  11       5.890  24.775  91.036  0.00  0.00    +0.150 HD
BRANCH  19  21
ATOM     21  CA  SER A  11       5.636  26.187  89.408  0.00  0.00    +0.166 C 
BRANCH  21  22
ATOM     22  CB  SER A  11       4.483  27.187  89.352  0.00  0.00    +0.229 C 
ATOM     23  OG  SER A  11       4.366  27.951  88.394  0.00  0.00    -0.286 OA
ENDBRANCH  21  22
BRANCH  21  24
ATOM     24  C   SER A  11       5.313  24.968  88.536  0.00  0.00    +0.165 C 
BRANCH  24  25
ATOM     25  O   SER A  11       4.111  24.346  88.950  0.00  0.00    -0.380 OA
ATOM     26  H   SER A  11       3.929  23.564  88.370  0.00  0.00    +0.211 HD
ENDBRANCH  24  25
ENDBRANCH  21  24
ENDBRANCH  19  21
ENDBRANCH  16  17
BRANCH  16  27
ATOM     27  CB  MET A  10       8.239  25.135  92.666  0.00  0.00    +0.041 C 
BRANCH  27  28
ATOM     28  CG  MET A  10       9.372  25.862  91.954  0.00  0.00    +0.060 C 
BRANCH  28  29
ATOM     29  SD  MET A  10      10.429  24.774  90.974  0.00  0.00    -0.139 S 
ATOM     30  CE  MET A  10       9.266  24.221  89.728  0.00  0.00    +0.069 C 
ENDBRANCH  28  29
ENDBRANCH  27  28
ENDBRANCH  16  27
ENDBRANCH  14  16
ENDBRANCH  11  12
BRANCH  11  31
ATOM     31  CB  VAL A   9       4.631  24.141  96.346  0.00  0.00    +0.027 C 
ATOM     32  CG2 VAL A   9       5.243  25.176  97.288  0.00  0.00    +0.002 C 
ATOM     33  CG1 VAL A   9       3.535  23.360  97.055  0.00  0.00    +0.002 C 
ENDBRANCH  11  31
ENDBRANCH   8  11
ENDBRANCH   6   7
BRANCH   6  34
ATOM     34  CB  GLN A   8       1.606  22.610  91.717  0.00  0.00    +0.039 C 
BRANCH  34  35
ATOM     35  CG  GLN A   8       1.256  21.892  90.411  0.00  0.00    +0.087 C 
BRANCH  35  36
ATOM     36  CD  GLN A   8       1.906  20.521  90.278  0.00  0.00    +0.219 C 
ATOM     37  OE1 GLN A   8       1.916  19.722  91.218  0.00  0.00    -0.275 OA
ATOM     38  NE2 GLN A   8       2.457  20.244  89.099  0.00  0.00    -0.329 N 
ATOM     39 HE21 GLN A   8       2.918  19.325  88.944  0.00  0.00    +0.145 HD
ATOM     40 HE22 GLN A   8       2.426  20.947  88.333  0.00  0.00    +0.145 HD
ENDBRANCH  35  36
ENDBRANCH  34  35
ENDBRANCH   6  34
ENDBRANCH   3   6
ENDBRANCH   1   2
BRANCH   1  43
ATOM     41  C   GLY A   6       5.690  20.607  94.665  0.00  0.00    +0.243 C 
ATOM     42  O   GLY A   6       6.383  21.607  94.863  0.00  0.00    -0.273 OA
ATOM     43  N   TYR A   7       5.533  20.088  93.454  0.00  0.00    -0.297 N 
ATOM     44  H   TYR A   7       5.019  19.192  93.338  0.00  0.00    +0.150 HD
BRANCH  41  45
ATOM     45  CA  GLY A   6       4.991  19.906  95.822  0.00  0.00    +0.176 C 
BRANCH  45  47
ATOM     46  C   GLY A   5       2.711  19.769  94.954  0.00  0.00    +0.243 C 
ATOM     47  N   GLY A   6       3.771  19.176  95.501  0.00  0.00    -0.295 N 
ATOM     48  H   GLY A   6       3.727  18.157  95.706  0.00  0.00    +0.150 HD
ATOM     49  O   GLY A   5       2.709  20.955  94.639  0.00  0.00    -0.273 OA
BRANCH  46  50
ATOM     50  CA  GLY A   5       1.481  18.903  94.697  0.00  0.00    +0.176 C 
BRANCH  50  53
ATOM     51  C   SER A   4       1.293  16.797  95.919  0.00  0.00    +0.243 C 
ATOM     52  O   SER A   4       0.546  17.275  96.777  0.00  0.00    -0.273 OA
ATOM     53  N   GLY A   5       1.726  17.478  94.857  0.00  0.00    -0.295 N 
ATOM     54  H   GLY A   5       2.257  16.973  94.119  0.00  0.00    +0.150 HD
BRANCH  51  55
ATOM     55  CA  SER A   4       1.792  15.370  96.071  0.00  0.00    +0.178 C 
BRANCH  55  57
ATOM     56  C   ASP A   3       1.705  14.118  93.972  0.00  0.00    +0.241 C 
ATOM     57  N   SER A   4       2.401  14.800  94.876  0.00  0.00    -0.295 N 
ATOM     58  H   SER A   4       3.421  14.932  94.724  0.00  0.00    +0.150 HD
ATOM     59  O   ASP A   3       0.475  14.119  93.933  0.00  0.00    -0.273 OA
BRANCH  56  60
ATOM     60  CA  ASP A   3       2.520  13.331  92.948  0.00  0.00    +0.160 C 
BRANCH  60  63
ATOM     61  C   THR A   2       1.359  11.256  93.137  0.00  0.00    +0.243 C 
ATOM     62  O   THR A   2       1.871  11.058  94.239  0.00  0.00    -0.273 OA
ATOM     63  N   ASP A   3       1.680  12.296  92.379  0.00  0.00    -0.296 N 
ATOM     64  H   ASP A   3       1.337  12.367  91.400  0.00  0.00    +0.150 HD
BRANCH  61  65
ATOM     65  CA  THR A   2       0.320  10.308  92.575  0.00  0.00    +0.176 C 
BRANCH  65  67
ATOM     66  C   LEU A   1       1.023   8.301  91.443  0.00  0.00    +0.238 C 
ATOM     67  N   THR A   2       0.803   8.935  92.592  0.00  0.00    -0.295 N 
ATOM     68  H   THR A   2       0.975   8.452  93.497  0.00  0.00    +0.150 HD
ATOM     69  O   LEU A   1       0.736   8.785  90.345  0.00  0.00    -0.274 OA
BRANCH  66  70
ATOM     70  CA  LEU A   1       1.628   6.909  91.524  0.00  0.00    +0.145 C 
BRANCH  70  71
ATOM     71  N   LEU A   1       0.873   6.057  90.624  0.00  0.00    -0.238 NA
ATOM     72  H   LEU A   1       1.087   6.086  89.607  0.00  0.00    +0.142 HD
ENDBRANCH  70  71
BRANCH  70  73
ATOM     73  CB  LEU A   1       3.105   6.930  91.112  0.00  0.00    +0.026 C 
BRANCH  73  74
ATOM     74  CG  LEU A   1       4.090   7.721  91.987  0.00  0.00    +0.002 C 
ATOM     75  CD2 LEU A   1       5.486   7.102  91.933  0.00  0.00    +0.000 C 
ATOM     76  CD1 LEU A   1       4.161   9.194  91.582  0.00  0.00    +0.000 C 
ENDBRANCH  73  74
ENDBRANCH  70  73
ENDBRANCH  66  70
ENDBRANCH  65  67
BRANCH  65  77
ATOM     77  CB  THR A   2      -0.996  10.463  93.363  0.00  0.00    +0.137 C 
ATOM     78  CG2 THR A   2      -2.159   9.842  92.595  0.00  0.00    +0.034 C 
BRANCH  77  79
ATOM     79  OG1 THR A   2      -0.880   9.829  94.641  0.00  0.00    -0.382 OA
ATOM     80  HG1 THR A   2      -0.143  10.250  95.151  0.00  0.00    +0.210 HD
ENDBRANCH  77  79
ENDBRANCH  65  77
ENDBRANCH  61  65
ENDBRANCH  60  63
BRANCH  60  81
ATOM     81  CB  ASP A   3       3.102  14.240  91.876  0.00  0.00    +0.143 C 
BRANCH  81  82
ATOM     82  CG  ASP A   3       4.315  15.003  92.368  0.00  0.00    +0.367 C 
ATOM     83  OD2 ASP A   3       4.791  14.723  93.501  0.00  0.00    -0.246 OA
ATOM     84  OD1 ASP A   3       4.799  15.870  91.613  0.00  0.00    -0.246 OA
ENDBRANCH  81  82
ENDBRANCH  60  81
ENDBRANCH  56  60
ENDBRANCH  55  57
BRANCH  55  85
ATOM     85  CB  SER A   4       2.819  15.346  97.195  0.00  0.00    +0.166 C 
BRANCH  85  86
ATOM     86  OG  SER A   4       3.960  16.099  96.814  0.00  0.00    -0.380 OA
ATOM     87  H   SER A   4       4.625  16.081  97.547  0.00  0.00    +0.211 HD
ENDBRANCH  85  86
ENDBRANCH  55  85
ENDBRANCH  51  55
ENDBRANCH  50  53
ENDBRANCH  46  50
ENDBRANCH  45  47
ENDBRANCH  41  45
ENDBRANCH   1  43
BRANCH   1  88
ATOM     88  CB  TYR A   7       6.073  19.845  91.072  0.00  0.00    +0.055 C 
BRANCH  88  89
ATOM     89  CG  TYR A   7       6.714  20.429  89.834  0.00  0.00    -0.020 A 
ATOM     90  CD2 TYR A   7       8.096  20.406  89.660  0.00  0.00    -0.001 A 
ATOM     91  CE2 TYR A   7       8.687  20.924  88.515  0.00  0.00    +0.036 A 
ATOM     92  CZ  TYR A   7       7.893  21.471  87.527  0.00  0.00    +0.134 A 
ATOM     93  CE1 TYR A   7       6.518  21.501  87.675  0.00  0.00    +0.036 A 
ATOM     94  CD1 TYR A   7       5.938  20.976  88.822  0.00  0.00    -0.001 A 
BRANCH  92  95
ATOM     95  OH  TYR A   7       8.468  21.992  86.385  0.00  0.00    -0.506 OA
ATOM     96  HH  TYR A   7       9.452  21.892  86.437  0.00  0.00    +0.292 HD
ENDBRANCH  92  95
ENDBRANCH  88  89
ENDBRANCH   1  88
TORSDOF 42
REMARK  Name = ../refined-set-2016/4lbu/4lbu_pocket.pdb
REMARK  224 active torsions:
REMARK  status: ('A' for Active; 'I' for Inactive)
REMARK    1  A    between atoms: _1  and  _3
REMARK    2  A    between atoms: _3  and  _4
REMARK    3  A    between atoms: _3  and  _6
REMARK    4  A    between atoms: _6  and  _7
REMARK    5  A    between atoms: _7  and  _8
REMARK    6  A    between atoms: _11  and  _12
REMARK    7  A    between atoms: _17  and  _19
REMARK    8  A    between atoms: _19  and  _20
REMARK    9  A    between atoms: _19  and  _22
REMARK   10  A    between atoms: _25  and  _27
REMARK   11  A    between atoms: _27  and  _28
REMARK   12  A    between atoms: _30  and  _32
REMARK   13  A    between atoms: _32  and  _33
REMARK   14  A    between atoms: _32  and  _35
REMARK   15  A    between atoms: _35  and  _36
REMARK   16  A    between atoms: _39  and  _41
REMARK   17  A    between atoms: _41  and  _42
REMARK   18  A    between atoms: _45  and  _47
REMARK   19  A    between atoms: _47  and  _48
REMARK   20  A    between atoms: _51  and  _53
REMARK   21  A    between atoms: _53  and  _54
REMARK   22  A    between atoms: _53  and  _56
REMARK   23  A    between atoms: _56  and  _57
REMARK   24  A    between atoms: _60  and  _62
REMARK   25  A    between atoms: _62  and  _63
REMARK   26  A    between atoms: _62  and  _65
REMARK   27  A    between atoms: _65  and  _66
REMARK   28  A    between atoms: _69  and  _71
REMARK   29  A    between atoms: _71  and  _72
REMARK   30  A    between atoms: _74  and  _76
REMARK   31  A    between atoms: _76  and  _77
REMARK   32  A    between atoms: _76  and  _79
REMARK   33  A    between atoms: _79  and  _80
REMARK   34  A    between atoms: _85  and  _87
REMARK   35  A    between atoms: _87  and  _88
REMARK   36  A    between atoms: _87  and  _90
REMARK   37  A    between atoms: _90  and  _91
REMARK   38  A    between atoms: _94  and  _96
REMARK   39  A    between atoms: _96  and  _97
REMARK   40  A    between atoms: _96  and  _99
REMARK   41  A    between atoms: _99  and  _100
REMARK   42  A    between atoms: _105  and  _106
REMARK   43  A    between atoms: _108  and  _110
REMARK   44  A    between atoms: _110  and  _111
REMARK   45  A    between atoms: _110  and  _113
REMARK   46  A    between atoms: _113  and  _114
REMARK   47  A    between atoms: _119  and  _121
REMARK   48  A    between atoms: _121  and  _122
REMARK   49  A    between atoms: _121  and  _124
REMARK   50  A    between atoms: _124  and  _125
REMARK   51  A    between atoms: _128  and  _130
REMARK   52  A    between atoms: _130  and  _131
REMARK   53  A    between atoms: _130  and  _133
REMARK   54  A    between atoms: _133  and  _134
REMARK   55  A    between atoms: _137  and  _139
REMARK   56  A    between atoms: _139  and  _140
REMARK   57  A    between atoms: _139  and  _142
REMARK   58  A    between atoms: _142  and  _143
REMARK   59  A    between atoms: _146  and  _148
REMARK   60  A    between atoms: _148  and  _149
REMARK   61  A    between atoms: _148  and  _151
REMARK   62  A    between atoms: _151  and  _152
REMARK   63  A    between atoms: _155  and  _157
REMARK   64  A    between atoms: _157  and  _158
REMARK   65  A    between atoms: _157  and  _160
REMARK   66  A    between atoms: _160  and  _161
REMARK   67  A    between atoms: _163  and  _165
REMARK   68  A    between atoms: _165  and  _166
REMARK   69  A    between atoms: _168  and  _170
REMARK   70  A    between atoms: _170  and  _171
REMARK   71  A    between atoms: _173  and  _175
REMARK   72  A    between atoms: _175  and  _176
REMARK   73  A    between atoms: _175  and  _178
REMARK   74  A    between atoms: _178  and  _179
REMARK   75  A    between atoms: _184  and  _185
REMARK   76  A    between atoms: _187  and  _189
REMARK   77  A    between atoms: _189  and  _190
REMARK   78  A    between atoms: _189  and  _192
REMARK   79  A    between atoms: _192  and  _193
REMARK   80  A    between atoms: _193  and  _194
REMARK   81  A    between atoms: _199  and  _201
REMARK   82  A    between atoms: _201  and  _202
REMARK   83  A    between atoms: _201  and  _204
REMARK   84  A    between atoms: _207  and  _209
REMARK   85  A    between atoms: _209  and  _210
REMARK   86  A    between atoms: _209  and  _212
REMARK   87  A    between atoms: _212  and  _213
REMARK   88  A    between atoms: _213  and  _214
REMARK   89  A    between atoms: _216  and  _218
REMARK   90  A    between atoms: _218  and  _219
REMARK   91  A    between atoms: _218  and  _221
REMARK   92  A    between atoms: _221  and  _222
REMARK   93  A    between atoms: _224  and  _226
REMARK   94  A    between atoms: _226  and  _227
REMARK   95  A    between atoms: _226  and  _229
REMARK   96  A    between atoms: _229  and  _230
REMARK   97  A    between atoms: _230  and  _231
REMARK   98  A    between atoms: _236  and  _238
REMARK   99  A    between atoms: _238  and  _239
REMARK  100  A    between atoms: _238  and  _241
REMARK  101  A    between atoms: _241  and  _242
REMARK  102  A    between atoms: _242  and  _243
REMARK  103  A    between atoms: _245  and  _247
REMARK  104  A    between atoms: _247  and  _248
REMARK  105  A    between atoms: _251  and  _253
REMARK  106  A    between atoms: _253  and  _254
REMARK  107  A    between atoms: _253  and  _256
REMARK  108  A    between atoms: _256  and  _257
REMARK  109  A    between atoms: _263  and  _265
REMARK  110  A    between atoms: _265  and  _266
REMARK  111  A    between atoms: _265  and  _268
REMARK  112  A    between atoms: _268  and  _269
REMARK  113  A    between atoms: _272  and  _274
REMARK  114  A    between atoms: _274  and  _275
REMARK  115  A    between atoms: _274  and  _277
REMARK  116  A    between atoms: _277  and  _278
REMARK  117  A    between atoms: _278  and  _279
REMARK  118  A    between atoms: _282  and  _284
REMARK  119  A    between atoms: _284  and  _285
REMARK  120  A    between atoms: _284  and  _287
REMARK  121  A    between atoms: _289  and  _291
REMARK  122  A    between atoms: _291  and  _292
REMARK  123  A    between atoms: _291  and  _294
REMARK  124  A    between atoms: _294  and  _295
REMARK  125  A    between atoms: _298  and  _300
REMARK  126  A    between atoms: _300  and  _301
REMARK  127  A    between atoms: _300  and  _303
REMARK  128  A    between atoms: _303  and  _304
REMARK  129  A    between atoms: _306  and  _308
REMARK  130  A    between atoms: _308  and  _309
REMARK  131  A    between atoms: _308  and  _311
REMARK  132  A    between atoms: _311  and  _312
REMARK  133  A    between atoms: _315  and  _317
REMARK  134  A    between atoms: _317  and  _318
REMARK  135  A    between atoms: _317  and  _320
REMARK  136  A    between atoms: _320  and  _321
REMARK  137  A    between atoms: _321  and  _322
REMARK  138  A    between atoms: _327  and  _329
REMARK  139  A    between atoms: _329  and  _330
REMARK  140  A    between atoms: _329  and  _332
REMARK  141  A    between atoms: _332  and  _333
REMARK  142  A    between atoms: _333  and  _334
REMARK  143  A    between atoms: _339  and  _341
REMARK  144  A    between atoms: _341  and  _342
REMARK  145  A    between atoms: _344  and  _346
REMARK  146  A    between atoms: _346  and  _347
REMARK  147  A    between atoms: _346  and  _349
REMARK  148  A    between atoms: _349  and  _350
REMARK  149  A    between atoms: _352  and  _354
REMARK  150  A    between atoms: _354  and  _355
REMARK  151  A    between atoms: _354  and  _357
REMARK  152  A    between atoms: _357  and  _358
REMARK  153  A    between atoms: _358  and  _359
REMARK  154  A    between atoms: _359  and  _360
REMARK  155  A    between atoms: _369  and  _371
REMARK  156  A    between atoms: _371  and  _372
REMARK  157  A    between atoms: _375  and  _377
REMARK  158  A    between atoms: _377  and  _378
REMARK  159  A    between atoms: _377  and  _380
REMARK  160  A    between atoms: _383  and  _385
REMARK  161  A    between atoms: _385  and  _386
REMARK  162  A    between atoms: _388  and  _390
REMARK  163  A    between atoms: _390  and  _391
REMARK  164  A    between atoms: _393  and  _395
REMARK  165  A    between atoms: _395  and  _396
REMARK  166  A    between atoms: _395  and  _398
REMARK  167  A    between atoms: _398  and  _399
REMARK  168  A    between atoms: _402  and  _404
REMARK  169  A    between atoms: _404  and  _405
REMARK  170  A    between atoms: _408  and  _410
REMARK  171  A    between atoms: _410  and  _411
REMARK  172  A    between atoms: _410  and  _413
REMARK  173  A    between atoms: _416  and  _418
REMARK  174  A    between atoms: _418  and  _419
REMARK  175  A    between atoms: _421  and  _423
REMARK  176  A    between atoms: _423  and  _424
REMARK  177  A    between atoms: _423  and  _426
REMARK  178  A    between atoms: _426  and  _427
REMARK  179  A    between atoms: _427  and  _428
REMARK  180  A    between atoms: _431  and  _433
REMARK  181  A    between atoms: _433  and  _434
REMARK  182  A    between atoms: _433  and  _436
REMARK  183  A    between atoms: _436  and  _437
REMARK  184  A    between atoms: _442  and  _443
REMARK  185  A    between atoms: _445  and  _447
REMARK  186  A    between atoms: _447  and  _448
REMARK  187  A    between atoms: _447  and  _450
REMARK  188  A    between atoms: _450  and  _451
REMARK  189  A    between atoms: _454  and  _456
REMARK  190  A    between atoms: _456  and  _457
REMARK  191  A    between atoms: _456  and  _459
REMARK  192  A    between atoms: _459  and  _460
REMARK  193  A    between atoms: _460  and  _461
REMARK  194  A    between atoms: _463  and  _465
REMARK  195  A    between atoms: _465  and  _466
REMARK  196  A    between atoms: _468  and  _470
REMARK  197  A    between atoms: _470  and  _471
REMARK  198  A    between atoms: _470  and  _473
REMARK  199  A    between atoms: _476  and  _478
REMARK  200  A    between atoms: _478  and  _479
REMARK  201  A    between atoms: _481  and  _483
REMARK  202  A    between atoms: _483  and  _484
REMARK  203  A    between atoms: _483  and  _486
REMARK  204  A    between atoms: _486  and  _487
REMARK  205  A    between atoms: _493  and  _495
REMARK  206  A    between atoms: _495  and  _496
REMARK  207  A    between atoms: _495  and  _498
REMARK  208  A    between atoms: _498  and  _499
REMARK  209  A    between atoms: _502  and  _504
REMARK  210  A    between atoms: _504  and  _505
REMARK  211  A    between atoms: _504  and  _507
REMARK  212  A    between atoms: _509  and  _511
REMARK  213  A    between atoms: _511  and  _512
REMARK  214  A    between atoms: _511  and  _514
REMARK  215  A    between atoms: _517  and  _519
REMARK  216  A    between atoms: _519  and  _520
REMARK  217  A    between atoms: _519  and  _522
REMARK  218  A    between atoms: _522  and  _523
REMARK  219  A    between atoms: _526  and  _528
REMARK  220  A    between atoms: _528  and  _529
REMARK  221  A    between atoms: _528  and  _531
REMARK  222  A    between atoms: _531  and  _532
REMARK  223  A    between atoms: _532  and  _533
REMARK  224  A    between atoms: _533  and  _534
REMARK                            x       y       z     vdW  Elec       q    Type
REMARK                         _______ _______ _______ _____ _____    ______ ____
ROOT
ATOM      1  CB  GLN A   1      -2.535  10.700  97.772  0.00  0.00    +0.035 C 
ENDROOT
BRANCH   1   2
ATOM      2  CA  GLN A   1      -4.041  10.766  97.566  0.00  0.00    +0.134 C 
BRANCH   2   3
ATOM      3  N   GLN A   1      -4.587  11.945  98.222  0.00  0.00    -0.239 NA
ATOM      4  H   GLN A   1      -3.991  12.505  98.864  0.00  0.00    +0.142 HD
ENDBRANCH   2   3
BRANCH   2   5
ATOM      5  C   GLN A   1      -4.781   9.499  98.010  0.00  0.00    +0.224 C 
ATOM      6  O   GLN A   1      -5.023   8.597  97.202  0.00  0.00    -0.287 OA
ENDBRANCH   2   5
ENDBRANCH   1   2
BRANCH   1   7
ATOM      7  CG  GLN A   1      -1.830  11.882  97.117  0.00  0.00    +0.087 C 
BRANCH   7   8
ATOM      8  CD  GLN A   1      -0.331  11.843  97.307  0.00  0.00    +0.219 C 
ATOM      9  NE2 GLN A   1       0.190  12.741  98.139  0.00  0.00    -0.329 N 
ATOM     10 HE21 GLN A   1      -0.428  13.430  98.614  0.00  0.00    +0.145 HD
ATOM     11 HE22 GLN A   1       1.215  12.754  98.315  0.00  0.00    +0.145 HD
ATOM     12  OE1 GLN A   1       0.351  11.007  96.720  0.00  0.00    -0.275 OA
ENDBRANCH   7   8
ENDBRANCH   1   7
TORSDOF 5
REMARK  Name = ../refined-set-2016/4lbu/4lbu_pocket.pdb
REMARK  224 active torsions:
REMARK  status: ('A' for Active; 'I' for Inactive)
REMARK    1  A    between atoms: _1  and  _3
REMARK    2  A    between atoms: _3  and  _4
REMARK    3  A    between atoms: _3  and  _6
REMARK    4  A    between atoms: _6  and  _7
REMARK    5  A    between atoms: _7  and  _8
REMARK    6  A    between atoms: _11  and  _12
REMARK    7  A    between atoms: _17  and  _19
REMARK    8  A    between atoms: _19  and  _20
REMARK    9  A    between atoms: _19  and  _22
REMARK   10  A    between atoms: _25  and  _27
REMARK   11  A    between atoms: _27  and  _28
REMARK   12  A    between atoms: _30  and  _32
REMARK   13  A    between atoms: _32  and  _33
REMARK   14  A    between atoms: _32  and  _35
REMARK   15  A    between atoms: _35  and  _36
REMARK   16  A    between atoms: _39  and  _41
REMARK   17  A    between atoms: _41  and  _42
REMARK   18  A    between atoms: _45  and  _47
REMARK   19  A    between atoms: _47  and  _48
REMARK   20  A    between atoms: _51  and  _53
REMARK   21  A    between atoms: _53  and  _54
REMARK   22  A    between atoms: _53  and  _56
REMARK   23  A    between atoms: _56  and  _57
REMARK   24  A    between atoms: _60  and  _62
REMARK   25  A    between atoms: _62  and  _63
REMARK   26  A    between atoms: _62  and  _65
REMARK   27  A    between atoms: _65  and  _66
REMARK   28  A    between atoms: _69  and  _71
REMARK   29  A    between atoms: _71  and  _72
REMARK   30  A    between atoms: _74  and  _76
REMARK   31  A    between atoms: _76  and  _77
REMARK   32  A    between atoms: _76  and  _79
REMARK   33  A    between atoms: _79  and  _80
REMARK   34  A    between atoms: _85  and  _87
REMARK   35  A    between atoms: _87  and  _88
REMARK   36  A    between atoms: _87  and  _90
REMARK   37  A    between atoms: _90  and  _91
REMARK   38  A    between atoms: _94  and  _96
REMARK   39  A    between atoms: _96  and  _97
REMARK   40  A    between atoms: _96  and  _99
REMARK   41  A    between atoms: _99  and  _100
REMARK   42  A    between atoms: _105  and  _106
REMARK   43  A    between atoms: _108  and  _110
REMARK   44  A    between atoms: _110  and  _111
REMARK   45  A    between atoms: _110  and  _113
REMARK   46  A    between atoms: _113  and  _114
REMARK   47  A    between atoms: _119  and  _121
REMARK   48  A    between atoms: _121  and  _122
REMARK   49  A    between atoms: _121  and  _124
REMARK   50  A    between atoms: _124  and  _125
REMARK   51  A    between atoms: _128  and  _130
REMARK   52  A    between atoms: _130  and  _131
REMARK   53  A    between atoms: _130  and  _133
REMARK   54  A    between atoms: _133  and  _134
REMARK   55  A    between atoms: _137  and  _139
REMARK   56  A    between atoms: _139  and  _140
REMARK   57  A    between atoms: _139  and  _142
REMARK   58  A    between atoms: _142  and  _143
REMARK   59  A    between atoms: _146  and  _148
REMARK   60  A    between atoms: _148  and  _149
REMARK   61  A    between atoms: _148  and  _151
REMARK   62  A    between atoms: _151  and  _152
REMARK   63  A    between atoms: _155  and  _157
REMARK   64  A    between atoms: _157  and  _158
REMARK   65  A    between atoms: _157  and  _160
REMARK   66  A    between atoms: _160  and  _161
REMARK   67  A    between atoms: _163  and  _165
REMARK   68  A    between atoms: _165  and  _166
REMARK   69  A    between atoms: _168  and  _170
REMARK   70  A    between atoms: _170  and  _171
REMARK   71  A    between atoms: _173  and  _175
REMARK   72  A    between atoms: _175  and  _176
REMARK   73  A    between atoms: _175  and  _178
REMARK   74  A    between atoms: _178  and  _179
REMARK   75  A    between atoms: _184  and  _185
REMARK   76  A    between atoms: _187  and  _189
REMARK   77  A    between atoms: _189  and  _190
REMARK   78  A    between atoms: _189  and  _192
REMARK   79  A    between atoms: _192  and  _193
REMARK   80  A    between atoms: _193  and  _194
REMARK   81  A    between atoms: _199  and  _201
REMARK   82  A    between atoms: _201  and  _202
REMARK   83  A    between atoms: _201  and  _204
REMARK   84  A    between atoms: _207  and  _209
REMARK   85  A    between atoms: _209  and  _210
REMARK   86  A    between atoms: _209  and  _212
REMARK   87  A    between atoms: _212  and  _213
REMARK   88  A    between atoms: _213  and  _214
REMARK   89  A    between atoms: _216  and  _218
REMARK   90  A    between atoms: _218  and  _219
REMARK   91  A    between atoms: _218  and  _221
REMARK   92  A    between atoms: _221  and  _222
REMARK   93  A    between atoms: _224  and  _226
REMARK   94  A    between atoms: _226  and  _227
REMARK   95  A    between atoms: _226  and  _229
REMARK   96  A    between atoms: _229  and  _230
REMARK   97  A    between atoms: _230  and  _231
REMARK   98  A    between atoms: _236  and  _238
REMARK   99  A    between atoms: _238  and  _239
REMARK  100  A    between atoms: _238  and  _241
REMARK  101  A    between atoms: _241  and  _242
REMARK  102  A    between atoms: _242  and  _243
REMARK  103  A    between atoms: _245  and  _247
REMARK  104  A    between atoms: _247  and  _248
REMARK  105  A    between atoms: _251  and  _253
REMARK  106  A    between atoms: _253  and  _254
REMARK  107  A    between atoms: _253  and  _256
REMARK  108  A    between atoms: _256  and  _257
REMARK  109  A    between atoms: _263  and  _265
REMARK  110  A    between atoms: _265  and  _266
REMARK  111  A    between atoms: _265  and  _268
REMARK  112  A    between atoms: _268  and  _269
REMARK  113  A    between atoms: _272  and  _274
REMARK  114  A    between atoms: _274  and  _275
REMARK  115  A    between atoms: _274  and  _277
REMARK  116  A    between atoms: _277  and  _278
REMARK  117  A    between atoms: _278  and  _279
REMARK  118  A    between atoms: _282  and  _284
REMARK  119  A    between atoms: _284  and  _285
REMARK  120  A    between atoms: _284  and  _287
REMARK  121  A    between atoms: _289  and  _291
REMARK  122  A    between atoms: _291  and  _292
REMARK  123  A    between atoms: _291  and  _294
REMARK  124  A    between atoms: _294  and  _295
REMARK  125  A    between atoms: _298  and  _300
REMARK  126  A    between atoms: _300  and  _301
REMARK  127  A    between atoms: _300  and  _303
REMARK  128  A    between atoms: _303  and  _304
REMARK  129  A    between atoms: _306  and  _308
REMARK  130  A    between atoms: _308  and  _309
REMARK  131  A    between atoms: _308  and  _311
REMARK  132  A    between atoms: _311  and  _312
REMARK  133  A    between atoms: _315  and  _317
REMARK  134  A    between atoms: _317  and  _318
REMARK  135  A    between atoms: _317  and  _320
REMARK  136  A    between atoms: _320  and  _321
REMARK  137  A    between atoms: _321  and  _322
REMARK  138  A    between atoms: _327  and  _329
REMARK  139  A    between atoms: _329  and  _330
REMARK  140  A    between atoms: _329  and  _332
REMARK  141  A    between atoms: _332  and  _333
REMARK  142  A    between atoms: _333  and  _334
REMARK  143  A    between atoms: _339  and  _341
REMARK  144  A    between atoms: _341  and  _342
REMARK  145  A    between atoms: _344  and  _346
REMARK  146  A    between atoms: _346  and  _347
REMARK  147  A    between atoms: _346  and  _349
REMARK  148  A    between atoms: _349  and  _350
REMARK  149  A    between atoms: _352  and  _354
REMARK  150  A    between atoms: _354  and  _355
REMARK  151  A    between atoms: _354  and  _357
REMARK  152  A    between atoms: _357  and  _358
REMARK  153  A    between atoms: _358  and  _359
REMARK  154  A    between atoms: _359  and  _360
REMARK  155  A    between atoms: _369  and  _371
REMARK  156  A    between atoms: _371  and  _372
REMARK  157  A    between atoms: _375  and  _377
REMARK  158  A    between atoms: _377  and  _378
REMARK  159  A    between atoms: _377  and  _380
REMARK  160  A    between atoms: _383  and  _385
REMARK  161  A    between atoms: _385  and  _386
REMARK  162  A    between atoms: _388  and  _390
REMARK  163  A    between atoms: _390  and  _391
REMARK  164  A    between atoms: _393  and  _395
REMARK  165  A    between atoms: _395  and  _396
REMARK  166  A    between atoms: _395  and  _398
REMARK  167  A    between atoms: _398  and  _399
REMARK  168  A    between atoms: _402  and  _404
REMARK  169  A    between atoms: _404  and  _405
REMARK  170  A    between atoms: _408  and  _410
REMARK  171  A    between atoms: _410  and  _411
REMARK  172  A    between atoms: _410  and  _413
REMARK  173  A    between atoms: _416  and  _418
REMARK  174  A    between atoms: _418  and  _419
REMARK  175  A    between atoms: _421  and  _423
REMARK  176  A    between atoms: _423  and  _424
REMARK  177  A    between atoms: _423  and  _426
REMARK  178  A    between atoms: _426  and  _427
REMARK  179  A    between atoms: _427  and  _428
REMARK  180  A    between atoms: _431  and  _433
REMARK  181  A    between atoms: _433  and  _434
REMARK  182  A    between atoms: _433  and  _436
REMARK  183  A    between atoms: _436  and  _437
REMARK  184  A    between atoms: _442  and  _443
REMARK  185  A    between atoms: _445  and  _447
REMARK  186  A    between atoms: _447  and  _448
REMARK  187  A    between atoms: _447  and  _450
REMARK  188  A    between atoms: _450  and  _451
REMARK  189  A    between atoms: _454  and  _456
REMARK  190  A    between atoms: _456  and  _457
REMARK  191  A    between atoms: _456  and  _459
REMARK  192  A    between atoms: _459  and  _460
REMARK  193  A    between atoms: _460  and  _461
REMARK  194  A    between atoms: _463  and  _465
REMARK  195  A    between atoms: _465  and  _466
REMARK  196  A    between atoms: _468  and  _470
REMARK  197  A    between atoms: _470  and  _471
REMARK  198  A    between atoms: _470  and  _473
REMARK  199  A    between atoms: _476  and  _478
REMARK  200  A    between atoms: _478  and  _479
REMARK  201  A    between atoms: _481  and  _483
REMARK  202  A    between atoms: _483  and  _484
REMARK  203  A    between atoms: _483  and  _486
REMARK  204  A    between atoms: _486  and  _487
REMARK  205  A    between atoms: _493  and  _495
REMARK  206  A    between atoms: _495  and  _496
REMARK  207  A    between atoms: _495  and  _498
REMARK  208  A    between atoms: _498  and  _499
REMARK  209  A    between atoms: _502  and  _504
REMARK  210  A    between atoms: _504  and  _505
REMARK  211  A    between atoms: _504  and  _507
REMARK  212  A    between atoms: _509  and  _511
REMARK  213  A    between atoms: _511  and  _512
REMARK  214  A    between atoms: _511  and  _514
REMARK  215  A    between atoms: _517  and  _519
REMARK  216  A    between atoms: _519  and  _520
REMARK  217  A    between atoms: _519  and  _522
REMARK  218  A    between atoms: _522  and  _523
REMARK  219  A    between atoms: _526  and  _528
REMARK  220  A    between atoms: _528  and  _529
REMARK  221  A    between atoms: _528  and  _531
REMARK  222  A    between atoms: _531  and  _532
REMARK  223  A    between atoms: _532  and  _533
REMARK  224  A    between atoms: _533  and  _534
REMARK                            x       y       z     vdW  Elec       q    Type
REMARK                         _______ _______ _______ _____ _____    ______ ____
ROOT
ATOM      1  CA  ASP A   4       7.384  18.622  99.664  0.00  0.00    +0.160 C 
ENDROOT
BRANCH   1   4
ATOM      2  C   PHE A   3       5.494  17.397 100.648  0.00  0.00    +0.241 C 
ATOM      3  O   PHE A   3       5.917  17.495 101.804  0.00  0.00    -0.273 OA
ATOM      4  N   ASP A   4       6.095  17.947  99.598  0.00  0.00    -0.297 N 
ATOM      5  H   ASP A   4       5.617  17.892  98.676  0.00  0.00    +0.150 HD
BRANCH   2   6
ATOM      6  CA  PHE A   3       4.224  16.622 100.347  0.00  0.00    +0.153 C 
BRANCH   6   8
ATOM      7  C   ALA A   2       5.049  14.378  99.917  0.00  0.00    +0.241 C 
ATOM      8  N   PHE A   3       4.423  15.234 100.722  0.00  0.00    -0.297 N 
ATOM      9  H   PHE A   3       4.068  14.900 101.641  0.00  0.00    +0.150 HD
ATOM     10  O   ALA A   2       5.431  14.681  98.776  0.00  0.00    -0.273 OA
BRANCH   7  11
ATOM     11  CA  ALA A   2       5.286  12.974 100.484  0.00  0.00    +0.149 C 
ATOM     12  CB  ALA A   2       6.613  12.917 101.219  0.00  0.00    +0.031 C 
BRANCH  11  14
ATOM     13  C   MET A   1       4.206  11.855  98.615  0.00  0.00    +0.238 C 
ATOM     14  N   ALA A   2       5.263  11.982  99.410  0.00  0.00    -0.297 N 
ATOM     15  H   ALA A   2       6.088  11.365  99.266  0.00  0.00    +0.150 HD
ATOM     16  O   MET A   1       3.148  12.471  98.807  0.00  0.00    -0.274 OA
BRANCH  13  17
ATOM     17  CA  MET A   1       4.370  10.930  97.412  0.00  0.00    +0.146 C 
BRANCH  17  18
ATOM     18  N   MET A   1       3.169  10.122  97.220  0.00  0.00    -0.238 NA
ATOM     19  H   MET A   1       2.366  10.511  96.686  0.00  0.00    +0.142 HD
ENDBRANCH  17  18
BRANCH  17  20
ATOM     20  CB  MET A   1       4.675  11.789  96.182  0.00  0.00    +0.038 C 
BRANCH  20  21
ATOM     21  CG  MET A   1       4.928  10.995  94.915  0.00  0.00    +0.060 C 
BRANCH  21  22
ATOM     22  SD  MET A   1       6.226   9.732  95.034  0.00  0.00    -0.139 S 
ATOM     23  CE  MET A   1       7.639  10.730  95.492  0.00  0.00    +0.069 C 
ENDBRANCH  21  22
ENDBRANCH  20  21
ENDBRANCH  17  20
ENDBRANCH  13  17
ENDBRANCH  11  14
ENDBRANCH   7  11
ENDBRANCH   6   8
BRANCH   6  24
ATOM     24  CB  PHE A   3       3.036  17.211 101.107  0.00  0.00    +0.055 C 
BRANCH  24  25
ATOM     25  CG  PHE A   3       2.682  18.605 100.686  0.00  0.00    -0.020 A 
ATOM     26  CD2 PHE A   3       2.921  19.684 101.522  0.00  0.00    -0.004 A 
ATOM     27  CE2 PHE A   3       2.588  20.979 101.128  0.00  0.00    -0.000 A 
ATOM     28  CZ  PHE A   3       2.017  21.194  99.892  0.00  0.00    -0.000 A 
ATOM     29  CE1 PHE A   3       1.785  20.127  99.045  0.00  0.00    -0.000 A 
ATOM     30  CD1 PHE A   3       2.108  18.839  99.445  0.00  0.00    -0.004 A 
ENDBRANCH  24  25
ENDBRANCH   6  24
ENDBRANCH   2   6
ENDBRANCH   1   4
BRANCH   1  31
ATOM     31  C   ASP A   4       7.278  20.001  99.029  0.00  0.00    +0.241 C 
ATOM     32  N   GLU A   5       8.406  20.690  98.935  0.00  0.00    -0.297 N 
ATOM     33  H   GLU A   5       9.219  20.430  99.529  0.00  0.00    +0.150 HD
ATOM     34  O   ASP A   4       6.197  20.439  98.640  0.00  0.00    -0.273 OA
BRANCH  32  35
ATOM     35  CA  GLU A   5       8.519  21.808  98.008  0.00  0.00    +0.149 C 
BRANCH  35  36
ATOM     36  C   GLU A   5       9.655  21.542  97.033  0.00  0.00    +0.241 C 
ATOM     37  O   GLU A   5      10.782  21.281  97.452  0.00  0.00    -0.273 OA
ATOM     38  N   CYS A   6       9.367  21.598  95.736  0.00  0.00    -0.296 N 
ATOM     39  H   CYS A   6       8.377  21.664  95.426  0.00  0.00    +0.150 HD
BRANCH  38  40
ATOM     40  CA  CYS A   6      10.438  21.567  94.750  0.00  0.00    +0.160 C 
BRANCH  40  41
ATOM     41  C   CYS A   6      11.149  22.916  94.794  0.00  0.00    +0.242 C 
ATOM     42  N   THR A   7      12.352  22.948  95.357  0.00  0.00    -0.296 N 
ATOM     43  H   THR A   7      12.781  22.066  95.703  0.00  0.00    +0.150 HD
ATOM     44  O   CYS A   6      10.604  23.921  94.350  0.00  0.00    -0.273 OA
BRANCH  42  45
ATOM     45  CA  THR A   7      13.078  24.207  95.495  0.00  0.00    +0.164 C 
BRANCH  45  46
ATOM     46  C   THR A   7      13.356  24.812  94.118  0.00  0.00    +0.229 C 
ATOM     47  O   THR A   7      13.804  24.110  93.219  0.00  0.00    -0.286 OA
ENDBRANCH  45  46
BRANCH  45  48
ATOM     48  CB  THR A   7      14.413  23.977  96.214  0.00  0.00    +0.136 C 
ATOM     49  CG2 THR A   7      15.105  25.303  96.534  0.00  0.00    +0.034 C 
BRANCH  48  50
ATOM     50  OG1 THR A   7      14.177  23.252  97.425  0.00  0.00    -0.382 OA
ATOM     51  HG1 THR A   7      15.037  23.102  97.891  0.00  0.00    +0.210 HD
ENDBRANCH  48  50
ENDBRANCH  45  48
ENDBRANCH  42  45
ENDBRANCH  40  41
BRANCH  40  52
ATOM     52  CB  CYS A   6       9.886  21.306  93.350  0.00  0.00    +0.098 C 
ATOM     53  SG  CYS A   6      11.151  21.209  92.084  0.00  0.00    -0.080 S 
ENDBRANCH  40  52
ENDBRANCH  38  40
ENDBRANCH  35  36
BRANCH  35  54
ATOM     54  CB  GLU A   5       8.799  23.120  98.730  0.00  0.00    +0.041 C 
BRANCH  54  55
ATOM     55  CG  GLU A   5       9.152  24.245  97.746  0.00  0.00    +0.116 C 
BRANCH  55  56
ATOM     56  CD  GLU A   5       9.498  25.562  98.415  0.00  0.00    +0.365 C 
ATOM     57  OE2 GLU A   5      10.358  25.583  99.322  0.00  0.00    -0.246 OA
ATOM     58  OE1 GLU A   5       8.904  26.587  98.024  0.00  0.00    -0.246 OA
ENDBRANCH  55  56
ENDBRANCH  54  55
ENDBRANCH  35  54
ENDBRANCH  32  35
ENDBRANCH   1  31
BRANCH   1  59
ATOM     59  CB  ASP A   4       8.447  17.797  98.913  0.00  0.00    +0.143 C 
BRANCH  59  60
ATOM     60  CG  ASP A   4       8.171  17.682  97.411  0.00  0.00    +0.367 C 
ATOM     61  OD2 ASP A   4       6.988  17.624  97.002  0.00  0.00    -0.246 OA
ATOM     62  OD1 ASP A   4       9.154  17.615  96.635  0.00  0.00    -0.246 OA
ENDBRANCH  59  60
ENDBRANCH   1  59
TORSDOF 27
REMARK  Name = ../refined-set-2016/4lbu/4lbu_pocket.pdb
REMARK  224 active torsions:
REMARK  status: ('A' for Active; 'I' for Inactive)
REMARK    1  A    between atoms: _1  and  _3
REMARK    2  A    between atoms: _3  and  _4
REMARK    3  A    between atoms: _3  and  _6
REMARK    4  A    between atoms: _6  and  _7
REMARK    5  A    between atoms: _7  and  _8
REMARK    6  A    between atoms: _11  and  _12
REMARK    7  A    between atoms: _17  and  _19
REMARK    8  A    between atoms: _19  and  _20
REMARK    9  A    between atoms: _19  and  _22
REMARK   10  A    between atoms: _25  and  _27
REMARK   11  A    between atoms: _27  and  _28
REMARK   12  A    between atoms: _30  and  _32
REMARK   13  A    between atoms: _32  and  _33
REMARK   14  A    between atoms: _32  and  _35
REMARK   15  A    between atoms: _35  and  _36
REMARK   16  A    between atoms: _39  and  _41
REMARK   17  A    between atoms: _41  and  _42
REMARK   18  A    between atoms: _45  and  _47
REMARK   19  A    between atoms: _47  and  _48
REMARK   20  A    between atoms: _51  and  _53
REMARK   21  A    between atoms: _53  and  _54
REMARK   22  A    between atoms: _53  and  _56
REMARK   23  A    between atoms: _56  and  _57
REMARK   24  A    between atoms: _60  and  _62
REMARK   25  A    between atoms: _62  and  _63
REMARK   26  A    between atoms: _62  and  _65
REMARK   27  A    between atoms: _65  and  _66
REMARK   28  A    between atoms: _69  and  _71
REMARK   29  A    between atoms: _71  and  _72
REMARK   30  A    between atoms: _74  and  _76
REMARK   31  A    between atoms: _76  and  _77
REMARK   32  A    between atoms: _76  and  _79
REMARK   33  A    between atoms: _79  and  _80
REMARK   34  A    between atoms: _85  and  _87
REMARK   35  A    between atoms: _87  and  _88
REMARK   36  A    between atoms: _87  and  _90
REMARK   37  A    between atoms: _90  and  _91
REMARK   38  A    between atoms: _94  and  _96
REMARK   39  A    between atoms: _96  and  _97
REMARK   40  A    between atoms: _96  and  _99
REMARK   41  A    between atoms: _99  and  _100
REMARK   42  A    between atoms: _105  and  _106
REMARK   43  A    between atoms: _108  and  _110
REMARK   44  A    between atoms: _110  and  _111
REMARK   45  A    between atoms: _110  and  _113
REMARK   46  A    between atoms: _113  and  _114
REMARK   47  A    between atoms: _119  and  _121
REMARK   48  A    between atoms: _121  and  _122
REMARK   49  A    between atoms: _121  and  _124
REMARK   50  A    between atoms: _124  and  _125
REMARK   51  A    between atoms: _128  and  _130
REMARK   52  A    between atoms: _130  and  _131
REMARK   53  A    between atoms: _130  and  _133
REMARK   54  A    between atoms: _133  and  _134
REMARK   55  A    between atoms: _137  and  _139
REMARK   56  A    between atoms: _139  and  _140
REMARK   57  A    between atoms: _139  and  _142
REMARK   58  A    between atoms: _142  and  _143
REMARK   59  A    between atoms: _146  and  _148
REMARK   60  A    between atoms: _148  and  _149
REMARK   61  A    between atoms: _148  and  _151
REMARK   62  A    between atoms: _151  and  _152
REMARK   63  A    between atoms: _155  and  _157
REMARK   64  A    between atoms: _157  and  _158
REMARK   65  A    between atoms: _157  and  _160
REMARK   66  A    between atoms: _160  and  _161
REMARK   67  A    between atoms: _163  and  _165
REMARK   68  A    between atoms: _165  and  _166
REMARK   69  A    between atoms: _168  and  _170
REMARK   70  A    between atoms: _170  and  _171
REMARK   71  A    between atoms: _173  and  _175
REMARK   72  A    between atoms: _175  and  _176
REMARK   73  A    between atoms: _175  and  _178
REMARK   74  A    between atoms: _178  and  _179
REMARK   75  A    between atoms: _184  and  _185
REMARK   76  A    between atoms: _187  and  _189
REMARK   77  A    between atoms: _189  and  _190
REMARK   78  A    between atoms: _189  and  _192
REMARK   79  A    between atoms: _192  and  _193
REMARK   80  A    between atoms: _193  and  _194
REMARK   81  A    between atoms: _199  and  _201
REMARK   82  A    between atoms: _201  and  _202
REMARK   83  A    between atoms: _201  and  _204
REMARK   84  A    between atoms: _207  and  _209
REMARK   85  A    between atoms: _209  and  _210
REMARK   86  A    between atoms: _209  and  _212
REMARK   87  A    between atoms: _212  and  _213
REMARK   88  A    between atoms: _213  and  _214
REMARK   89  A    between atoms: _216  and  _218
REMARK   90  A    between atoms: _218  and  _219
REMARK   91  A    between atoms: _218  and  _221
REMARK   92  A    between atoms: _221  and  _222
REMARK   93  A    between atoms: _224  and  _226
REMARK   94  A    between atoms: _226  and  _227
REMARK   95  A    between atoms: _226  and  _229
REMARK   96  A    between atoms: _229  and  _230
REMARK   97  A    between atoms: _230  and  _231
REMARK   98  A    between atoms: _236  and  _238
REMARK   99  A    between atoms: _238  and  _239
REMARK  100  A    between atoms: _238  and  _241
REMARK  101  A    between atoms: _241  and  _242
REMARK  102  A    between atoms: _242  and  _243
REMARK  103  A    between atoms: _245  and  _247
REMARK  104  A    between atoms: _247  and  _248
REMARK  105  A    between atoms: _251  and  _253
REMARK  106  A    between atoms: _253  and  _254
REMARK  107  A    between atoms: _253  and  _256
REMARK  108  A    between atoms: _256  and  _257
REMARK  109  A    between atoms: _263  and  _265
REMARK  110  A    between atoms: _265  and  _266
REMARK  111  A    between atoms: _265  and  _268
REMARK  112  A    between atoms: _268  and  _269
REMARK  113  A    between atoms: _272  and  _274
REMARK  114  A    between atoms: _274  and  _275
REMARK  115  A    between atoms: _274  and  _277
REMARK  116  A    between atoms: _277  and  _278
REMARK  117  A    between atoms: _278  and  _279
REMARK  118  A    between atoms: _282  and  _284
REMARK  119  A    between atoms: _284  and  _285
REMARK  120  A    between atoms: _284  and  _287
REMARK  121  A    between atoms: _289  and  _291
REMARK  122  A    between atoms: _291  and  _292
REMARK  123  A    between atoms: _291  and  _294
REMARK  124  A    between atoms: _294  and  _295
REMARK  125  A    between atoms: _298  and  _300
REMARK  126  A    between atoms: _300  and  _301
REMARK  127  A    between atoms: _300  and  _303
REMARK  128  A    between atoms: _303  and  _304
REMARK  129  A    between atoms: _306  and  _308
REMARK  130  A    between atoms: _308  and  _309
REMARK  131  A    between atoms: _308  and  _311
REMARK  132  A    between atoms: _311  and  _312
REMARK  133  A    between atoms: _315  and  _317
REMARK  134  A    between atoms: _317  and  _318
REMARK  135  A    between atoms: _317  and  _320
REMARK  136  A    between atoms: _320  and  _321
REMARK  137  A    between atoms: _321  and  _322
REMARK  138  A    between atoms: _327  and  _329
REMARK  139  A    between atoms: _329  and  _330
REMARK  140  A    between atoms: _329  and  _332
REMARK  141  A    between atoms: _332  and  _333
REMARK  142  A    between atoms: _333  and  _334
REMARK  143  A    between atoms: _339  and  _341
REMARK  144  A    between atoms: _341  and  _342
REMARK  145  A    between atoms: _344  and  _346
REMARK  146  A    between atoms: _346  and  _347
REMARK  147  A    between atoms: _346  and  _349
REMARK  148  A    between atoms: _349  and  _350
REMARK  149  A    between atoms: _352  and  _354
REMARK  150  A    between atoms: _354  and  _355
REMARK  151  A    between atoms: _354  and  _357
REMARK  152  A    between atoms: _357  and  _358
REMARK  153  A    between atoms: _358  and  _359
REMARK  154  A    between atoms: _359  and  _360
REMARK  155  A    between atoms: _369  and  _371
REMARK  156  A    between atoms: _371  and  _372
REMARK  157  A    between atoms: _375  and  _377
REMARK  158  A    between atoms: _377  and  _378
REMARK  159  A    between atoms: _377  and  _380
REMARK  160  A    between atoms: _383  and  _385
REMARK  161  A    between atoms: _385  and  _386
REMARK  162  A    between atoms: _388  and  _390
REMARK  163  A    between atoms: _390  and  _391
REMARK  164  A    between atoms: _393  and  _395
REMARK  165  A    between atoms: _395  and  _396
REMARK  166  A    between atoms: _395  and  _398
REMARK  167  A    between atoms: _398  and  _399
REMARK  168  A    between atoms: _402  and  _404
REMARK  169  A    between atoms: _404  and  _405
REMARK  170  A    between atoms: _408  and  _410
REMARK  171  A    between atoms: _410  and  _411
REMARK  172  A    between atoms: _410  and  _413
REMARK  173  A    between atoms: _416  and  _418
REMARK  174  A    between atoms: _418  and  _419
REMARK  175  A    between atoms: _421  and  _423
REMARK  176  A    between atoms: _423  and  _424
REMARK  177  A    between atoms: _423  and  _426
REMARK  178  A    between atoms: _426  and  _427
REMARK  179  A    between atoms: _427  and  _428
REMARK  180  A    between atoms: _431  and  _433
REMARK  181  A    between atoms: _433  and  _434
REMARK  182  A    between atoms: _433  and  _436
REMARK  183  A    between atoms: _436  and  _437
REMARK  184  A    between atoms: _442  and  _443
REMARK  185  A    between atoms: _445  and  _447
REMARK  186  A    between atoms: _447  and  _448
REMARK  187  A    between atoms: _447  and  _450
REMARK  188  A    between atoms: _450  and  _451
REMARK  189  A    between atoms: _454  and  _456
REMARK  190  A    between atoms: _456  and  _457
REMARK  191  A    between atoms: _456  and  _459
REMARK  192  A    between atoms: _459  and  _460
REMARK  193  A    between atoms: _460  and  _461
REMARK  194  A    between atoms: _463  and  _465
REMARK  195  A    between atoms: _465  and  _466
REMARK  196  A    between atoms: _468  and  _470
REMARK  197  A    between atoms: _470  and  _471
REMARK  198  A    between atoms: _470  and  _473
REMARK  199  A    between atoms: _476  and  _478
REMARK  200  A    between atoms: _478  and  _479
REMARK  201  A    between atoms: _481  and  _483
REMARK  202  A    between atoms: _483  and  _484
REMARK  203  A    between atoms: _483  and  _486
REMARK  204  A    between atoms: _486  and  _487
REMARK  205  A    between atoms: _493  and  _495
REMARK  206  A    between atoms: _495  and  _496
REMARK  207  A    between atoms: _495  and  _498
REMARK  208  A    between atoms: _498  and  _499
REMARK  209  A    between atoms: _502  and  _504
REMARK  210  A    between atoms: _504  and  _505
REMARK  211  A    between atoms: _504  and  _507
REMARK  212  A    between atoms: _509  and  _511
REMARK  213  A    between atoms: _511  and  _512
REMARK  214  A    between atoms: _511  and  _514
REMARK  215  A    between atoms: _517  and  _519
REMARK  216  A    between atoms: _519  and  _520
REMARK  217  A    between atoms: _519  and  _522
REMARK  218  A    between atoms: _522  and  _523
REMARK  219  A    between atoms: _526  and  _528
REMARK  220  A    between atoms: _528  and  _529
REMARK  221  A    between atoms: _528  and  _531
REMARK  222  A    between atoms: _531  and  _532
REMARK  223  A    between atoms: _532  and  _533
REMARK  224  A    between atoms: _533  and  _534
REMARK                            x       y       z     vdW  Elec       q    Type
REMARK                         _______ _______ _______ _____ _____    ______ ____
ROOT
ATOM      1  CA  SER A   1      10.420  19.627 103.300  0.00  0.00    +0.163 C 
ENDROOT
BRANCH   1   2
ATOM      2  N   SER A   1      10.860  20.857 103.946  0.00  0.00    -0.237 NA
ATOM      3  H   SER A   1      11.598  21.444 103.507  0.00  0.00    +0.142 HD
ENDBRANCH   1   2
BRANCH   1   4
ATOM      4  CB  SER A   1      10.630  18.411 104.192  0.00  0.00    +0.227 C 
ATOM      5  OG  SER A   1       9.820  17.486 104.174  0.00  0.00    -0.287 OA
ENDBRANCH   1   4
BRANCH   1   6
ATOM      6  C   SER A   1      11.115  19.423 101.949  0.00  0.00    +0.162 C 
BRANCH   6   7
ATOM      7  O   SER A   1      10.607  20.334 100.990  0.00  0.00    -0.380 OA
ATOM      8  H   SER A   1      11.065  20.190 100.124  0.00  0.00    +0.211 HD
ENDBRANCH   6   7
ENDBRANCH   1   6
TORSDOF 4
REMARK  Name = ../refined-set-2016/4lbu/4lbu_pocket.pdb
REMARK  224 active torsions:
REMARK  status: ('A' for Active; 'I' for Inactive)
REMARK    1  A    between atoms: _1  and  _3
REMARK    2  A    between atoms: _3  and  _4
REMARK    3  A    between atoms: _3  and  _6
REMARK    4  A    between atoms: _6  and  _7
REMARK    5  A    between atoms: _7  and  _8
REMARK    6  A    between atoms: _11  and  _12
REMARK    7  A    between atoms: _17  and  _19
REMARK    8  A    between atoms: _19  and  _20
REMARK    9  A    between atoms: _19  and  _22
REMARK   10  A    between atoms: _25  and  _27
REMARK   11  A    between atoms: _27  and  _28
REMARK   12  A    between atoms: _30  and  _32
REMARK   13  A    between atoms: _32  and  _33
REMARK   14  A    between atoms: _32  and  _35
REMARK   15  A    between atoms: _35  and  _36
REMARK   16  A    between atoms: _39  and  _41
REMARK   17  A    between atoms: _41  and  _42
REMARK   18  A    between atoms: _45  and  _47
REMARK   19  A    between atoms: _47  and  _48
REMARK   20  A    between atoms: _51  and  _53
REMARK   21  A    between atoms: _53  and  _54
REMARK   22  A    between atoms: _53  and  _56
REMARK   23  A    between atoms: _56  and  _57
REMARK   24  A    between atoms: _60  and  _62
REMARK   25  A    between atoms: _62  and  _63
REMARK   26  A    between atoms: _62  and  _65
REMARK   27  A    between atoms: _65  and  _66
REMARK   28  A    between atoms: _69  and  _71
REMARK   29  A    between atoms: _71  and  _72
REMARK   30  A    between atoms: _74  and  _76
REMARK   31  A    between atoms: _76  and  _77
REMARK   32  A    between atoms: _76  and  _79
REMARK   33  A    between atoms: _79  and  _80
REMARK   34  A    between atoms: _85  and  _87
REMARK   35  A    between atoms: _87  and  _88
REMARK   36  A    between atoms: _87  and  _90
REMARK   37  A    between atoms: _90  and  _91
REMARK   38  A    between atoms: _94  and  _96
REMARK   39  A    between atoms: _96  and  _97
REMARK   40  A    between atoms: _96  and  _99
REMARK   41  A    between atoms: _99  and  _100
REMARK   42  A    between atoms: _105  and  _106
REMARK   43  A    between atoms: _108  and  _110
REMARK   44  A    between atoms: _110  and  _111
REMARK   45  A    between atoms: _110  and  _113
REMARK   46  A    between atoms: _113  and  _114
REMARK   47  A    between atoms: _119  and  _121
REMARK   48  A    between atoms: _121  and  _122
REMARK   49  A    between atoms: _121  and  _124
REMARK   50  A    between atoms: _124  and  _125
REMARK   51  A    between atoms: _128  and  _130
REMARK   52  A    between atoms: _130  and  _131
REMARK   53  A    between atoms: _130  and  _133
REMARK   54  A    between atoms: _133  and  _134
REMARK   55  A    between atoms: _137  and  _139
REMARK   56  A    between atoms: _139  and  _140
REMARK   57  A    between atoms: _139  and  _142
REMARK   58  A    between atoms: _142  and  _143
REMARK   59  A    between atoms: _146  and  _148
REMARK   60  A    between atoms: _148  and  _149
REMARK   61  A    between atoms: _148  and  _151
REMARK   62  A    between atoms: _151  and  _152
REMARK   63  A    between atoms: _155  and  _157
REMARK   64  A    between atoms: _157  and  _158
REMARK   65  A    between atoms: _157  and  _160
REMARK   66  A    between atoms: _160  and  _161
REMARK   67  A    between atoms: _163  and  _165
REMARK   68  A    between atoms: _165  and  _166
REMARK   69  A    between atoms: _168  and  _170
REMARK   70  A    between atoms: _170  and  _171
REMARK   71  A    between atoms: _173  and  _175
REMARK   72  A    between atoms: _175  and  _176
REMARK   73  A    between atoms: _175  and  _178
REMARK   74  A    between atoms: _178  and  _179
REMARK   75  A    between atoms: _184  and  _185
REMARK   76  A    between atoms: _187  and  _189
REMARK   77  A    between atoms: _189  and  _190
REMARK   78  A    between atoms: _189  and  _192
REMARK   79  A    between atoms: _192  and  _193
REMARK   80  A    between atoms: _193  and  _194
REMARK   81  A    between atoms: _199  and  _201
REMARK   82  A    between atoms: _201  and  _202
REMARK   83  A    between atoms: _201  and  _204
REMARK   84  A    between atoms: _207  and  _209
REMARK   85  A    between atoms: _209  and  _210
REMARK   86  A    between atoms: _209  and  _212
REMARK   87  A    between atoms: _212  and  _213
REMARK   88  A    between atoms: _213  and  _214
REMARK   89  A    between atoms: _216  and  _218
REMARK   90  A    between atoms: _218  and  _219
REMARK   91  A    between atoms: _218  and  _221
REMARK   92  A    between atoms: _221  and  _222
REMARK   93  A    between atoms: _224  and  _226
REMARK   94  A    between atoms: _226  and  _227
REMARK   95  A    between atoms: _226  and  _229
REMARK   96  A    between atoms: _229  and  _230
REMARK   97  A    between atoms: _230  and  _231
REMARK   98  A    between atoms: _236  and  _238
REMARK   99  A    between atoms: _238  and  _239
REMARK  100  A    between atoms: _238  and  _241
REMARK  101  A    between atoms: _241  and  _242
REMARK  102  A    between atoms: _242  and  _243
REMARK  103  A    between atoms: _245  and  _247
REMARK  104  A    between atoms: _247  and  _248
REMARK  105  A    between atoms: _251  and  _253
REMARK  106  A    between atoms: _253  and  _254
REMARK  107  A    between atoms: _253  and  _256
REMARK  108  A    between atoms: _256  and  _257
REMARK  109  A    between atoms: _263  and  _265
REMARK  110  A    between atoms: _265  and  _266
REMARK  111  A    between atoms: _265  and  _268
REMARK  112  A    between atoms: _268  and  _269
REMARK  113  A    between atoms: _272  and  _274
REMARK  114  A    between atoms: _274  and  _275
REMARK  115  A    between atoms: _274  and  _277
REMARK  116  A    between atoms: _277  and  _278
REMARK  117  A    between atoms: _278  and  _279
REMARK  118  A    between atoms: _282  and  _284
REMARK  119  A    between atoms: _284  and  _285
REMARK  120  A    between atoms: _284  and  _287
REMARK  121  A    between atoms: _289  and  _291
REMARK  122  A    between atoms: _291  and  _292
REMARK  123  A    between atoms: _291  and  _294
REMARK  124  A    between atoms: _294  and  _295
REMARK  125  A    between atoms: _298  and  _300
REMARK  126  A    between atoms: _300  and  _301
REMARK  127  A    between atoms: _300  and  _303
REMARK  128  A    between atoms: _303  and  _304
REMARK  129  A    between atoms: _306  and  _308
REMARK  130  A    between atoms: _308  and  _309
REMARK  131  A    between atoms: _308  and  _311
REMARK  132  A    between atoms: _311  and  _312
REMARK  133  A    between atoms: _315  and  _317
REMARK  134  A    between atoms: _317  and  _318
REMARK  135  A    between atoms: _317  and  _320
REMARK  136  A    between atoms: _320  and  _321
REMARK  137  A    between atoms: _321  and  _322
REMARK  138  A    between atoms: _327  and  _329
REMARK  139  A    between atoms: _329  and  _330
REMARK  140  A    between atoms: _329  and  _332
REMARK  141  A    between atoms: _332  and  _333
REMARK  142  A    between atoms: _333  and  _334
REMARK  143  A    between atoms: _339  and  _341
REMARK  144  A    between atoms: _341  and  _342
REMARK  145  A    between atoms: _344  and  _346
REMARK  146  A    between atoms: _346  and  _347
REMARK  147  A    between atoms: _346  and  _349
REMARK  148  A    between atoms: _349  and  _350
REMARK  149  A    between atoms: _352  and  _354
REMARK  150  A    between atoms: _354  and  _355
REMARK  151  A    between atoms: _354  and  _357
REMARK  152  A    between atoms: _357  and  _358
REMARK  153  A    between atoms: _358  and  _359
REMARK  154  A    between atoms: _359  and  _360
REMARK  155  A    between atoms: _369  and  _371
REMARK  156  A    between atoms: _371  and  _372
REMARK  157  A    between atoms: _375  and  _377
REMARK  158  A    between atoms: _377  and  _378
REMARK  159  A    between atoms: _377  and  _380
REMARK  160  A    between atoms: _383  and  _385
REMARK  161  A    between atoms: _385  and  _386
REMARK  162  A    between atoms: _388  and  _390
REMARK  163  A    between atoms: _390  and  _391
REMARK  164  A    between atoms: _393  and  _395
REMARK  165  A    between atoms: _395  and  _396
REMARK  166  A    between atoms: _395  and  _398
REMARK  167  A    between atoms: _398  and  _399
REMARK  168  A    between atoms: _402  and  _404
REMARK  169  A    between atoms: _404  and  _405
REMARK  170  A    between atoms: _408  and  _410
REMARK  171  A    between atoms: _410  and  _411
REMARK  172  A    between atoms: _410  and  _413
REMARK  173  A    between atoms: _416  and  _418
REMARK  174  A    between atoms: _418  and  _419
REMARK  175  A    between atoms: _421  and  _423
REMARK  176  A    between atoms: _423  and  _424
REMARK  177  A    between atoms: _423  and  _426
REMARK  178  A    between atoms: _426  and  _427
REMARK  179  A    between atoms: _427  and  _428
REMARK  180  A    between atoms: _431  and  _433
REMARK  181  A    between atoms: _433  and  _434
REMARK  182  A    between atoms: _433  and  _436
REMARK  183  A    between atoms: _436  and  _437
REMARK  184  A    between atoms: _442  and  _443
REMARK  185  A    between atoms: _445  and  _447
REMARK  186  A    between atoms: _447  and  _448
REMARK  187  A    between atoms: _447  and  _450
REMARK  188  A    between atoms: _450  and  _451
REMARK  189  A    between atoms: _454  and  _456
REMARK  190  A    between atoms: _456  and  _457
REMARK  191  A    between atoms: _456  and  _459
REMARK  192  A    between atoms: _459  and  _460
REMARK  193  A    between atoms: _460  and  _461
REMARK  194  A    between atoms: _463  and  _465
REMARK  195  A    between atoms: _465  and  _466
REMARK  196  A    between atoms: _468  and  _470
REMARK  197  A    between atoms: _470  and  _471
REMARK  198  A    between atoms: _470  and  _473
REMARK  199  A    between atoms: _476  and  _478
REMARK  200  A    between atoms: _478  and  _479
REMARK  201  A    between atoms: _481  and  _483
REMARK  202  A    between atoms: _483  and  _484
REMARK  203  A    between atoms: _483  and  _486
REMARK  204  A    between atoms: _486  and  _487
REMARK  205  A    between atoms: _493  and  _495
REMARK  206  A    between atoms: _495  and  _496
REMARK  207  A    between atoms: _495  and  _498
REMARK  208  A    between atoms: _498  and  _499
REMARK  209  A    between atoms: _502  and  _504
REMARK  210  A    between atoms: _504  and  _505
REMARK  211  A    between atoms: _504  and  _507
REMARK  212  A    between atoms: _509  and  _511
REMARK  213  A    between atoms: _511  and  _512
REMARK  214  A    between atoms: _511  and  _514
REMARK  215  A    between atoms: _517  and  _519
REMARK  216  A    between atoms: _519  and  _520
REMARK  217  A    between atoms: _519  and  _522
REMARK  218  A    between atoms: _522  and  _523
REMARK  219  A    between atoms: _526  and  _528
REMARK  220  A    between atoms: _528  and  _529
REMARK  221  A    between atoms: _528  and  _531
REMARK  222  A    between atoms: _531  and  _532
REMARK  223  A    between atoms: _532  and  _533
REMARK  224  A    between atoms: _533  and  _534
REMARK                            x       y       z     vdW  Elec       q    Type
REMARK                         _______ _______ _______ _____ _____    ______ ____
ROOT
ATOM      1  C   GLN A   2      15.123  15.661  98.080  0.00  0.00    +0.241 C 
ATOM      2  N   GLN A   3      15.501  16.677  98.852  0.00  0.00    -0.297 N 
ATOM      3  H   GLN A   3      15.645  16.511  99.868  0.00  0.00    +0.150 HD
ATOM      4  O   GLN A   2      14.823  15.790  96.887  0.00  0.00    -0.273 OA
ENDROOT
BRANCH   2   5
ATOM      5  CA  GLN A   3      15.720  18.016  98.318  0.00  0.00    +0.149 C 
BRANCH   5   6
ATOM      6  C   GLN A   3      17.159  18.447  98.638  0.00  0.00    +0.241 C 
ATOM      7  O   GLN A   3      18.006  17.601  98.923  0.00  0.00    -0.273 OA
ATOM      8  N   GLY A   4      17.455  19.741  98.555  0.00  0.00    -0.295 N 
ATOM      9  H   GLY A   4      16.705  20.429  98.339  0.00  0.00    +0.150 HD
BRANCH   8  10
ATOM     10  CA  GLY A   4      18.817  20.202  98.764  0.00  0.00    +0.176 C 
BRANCH  10  11
ATOM     11  C   GLY A   4      19.456  20.876  97.562  0.00  0.00    +0.243 C 
ATOM     12  O   GLY A   4      20.653  21.177  97.590  0.00  0.00    -0.273 OA
ATOM     13  N   SER A   5      18.668  21.115  96.513  0.00  0.00    -0.296 N 
ATOM     14  H   SER A   5      17.676  20.803  96.543  0.00  0.00    +0.150 HD
BRANCH  13  15
ATOM     15  CA  SER A   5      19.163  21.804  95.322  0.00  0.00    +0.166 C 
BRANCH  15  16
ATOM     16  C   SER A   5      20.386  21.065  94.762  0.00  0.00    +0.229 C 
ATOM     17  O   SER A   5      20.354  19.839  94.627  0.00  0.00    -0.286 OA
ENDBRANCH  15  16
BRANCH  15  18
ATOM     18  CB  SER A   5      19.451  23.284  95.636  0.00  0.00    +0.165 C 
BRANCH  18  19
ATOM     19  OG  SER A   5      19.804  24.020  94.475  0.00  0.00    -0.380 OA
ATOM     20  H   SER A   5      19.060  23.983  93.823  0.00  0.00    +0.211 HD
ENDBRANCH  18  19
ENDBRANCH  15  18
ENDBRANCH  13  15
ENDBRANCH  10  11
ENDBRANCH   8  10
ENDBRANCH   5   6
BRANCH   5  21
ATOM     21  CB  GLN A   3      14.655  18.994  98.840  0.00  0.00    +0.039 C 
BRANCH  21  22
ATOM     22  CG  GLN A   3      13.228  18.633  98.397  0.00  0.00    +0.087 C 
BRANCH  22  23
ATOM     23  CD  GLN A   3      12.967  18.883  96.915  0.00  0.00    +0.219 C 
ATOM     24  NE2 GLN A   3      11.887  18.307  96.406  0.00  0.00    -0.329 N 
ATOM     25 HE21 GLN A   3      11.282  17.713  97.008  0.00  0.00    +0.145 HD
ATOM     26 HE22 GLN A   3      11.645  18.449  95.405  0.00  0.00    +0.145 HD
ATOM     27  OE1 GLN A   3      13.714  19.594  96.245  0.00  0.00    -0.275 OA
ENDBRANCH  22  23
ENDBRANCH  21  22
ENDBRANCH   5  21
ENDBRANCH   2   5
BRANCH   1  28
ATOM     28  CA  GLN A   2      15.075  14.295  98.752  0.00  0.00    +0.149 C 
BRANCH  28  31
ATOM     29  C   ILE A   1      12.662  13.940  98.908  0.00  0.00    +0.238 C 
ATOM     30  O   ILE A   1      12.525  14.829  99.754  0.00  0.00    -0.274 OA
ATOM     31  N   GLN A   2      13.841  13.607  98.394  0.00  0.00    -0.297 N 
ATOM     32  H   GLN A   2      13.885  12.825  97.710  0.00  0.00    +0.150 HD
BRANCH  29  33
ATOM     33  CA  ILE A   1      11.464  13.155  98.377  0.00  0.00    +0.145 C 
BRANCH  33  34
ATOM     34  CB  ILE A   1      10.481  14.119  97.680  0.00  0.00    +0.025 C 
ATOM     35  CG2 ILE A   1      11.178  14.812  96.509  0.00  0.00    +0.002 C 
BRANCH  34  36
ATOM     36  CG1 ILE A   1       9.232  13.371  97.209  0.00  0.00    +0.002 C 
ATOM     37  CD1 ILE A   1       8.119  14.274  96.672  0.00  0.00    +0.000 C 
ENDBRANCH  34  36
ENDBRANCH  33  34
BRANCH  33  38
ATOM     38  N   ILE A   1      10.826  12.392  99.443  0.00  0.00    -0.238 NA
ATOM     39  H   ILE A   1      10.467  12.898 100.277  0.00  0.00    +0.142 HD
ENDBRANCH  33  38
ENDBRANCH  29  33
ENDBRANCH  28  31
BRANCH  28  40
ATOM     40  CB  GLN A   2      16.278  13.468  98.300  0.00  0.00    +0.039 C 
BRANCH  40  41
ATOM     41  CG  GLN A   2      17.623  14.040  98.708  0.00  0.00    +0.087 C 
BRANCH  41  42
ATOM     42  CD  GLN A   2      18.754  13.478  97.875  0.00  0.00    +0.219 C 
ATOM     43  NE2 GLN A   2      19.855  13.113  98.533  0.00  0.00    -0.329 N 
ATOM     44 HE21 GLN A   2      19.906  13.227  99.565  0.00  0.00    +0.145 HD
ATOM     45 HE22 GLN A   2      20.663  12.714  98.014  0.00  0.00    +0.145 HD
ATOM     46  OE1 GLN A   2      18.640  13.365  96.656  0.00  0.00    -0.275 OA
ENDBRANCH  41  42
ENDBRANCH  40  41
ENDBRANCH  28  40
ENDBRANCH   1  28
TORSDOF 20
REMARK  Name = ../refined-set-2016/4lbu/4lbu_pocket.pdb
REMARK  224 active torsions:
REMARK  status: ('A' for Active; 'I' for Inactive)
REMARK    1  A    between atoms: _1  and  _3
REMARK    2  A    between atoms: _3  and  _4
REMARK    3  A    between atoms: _3  and  _6
REMARK    4  A    between atoms: _6  and  _7
REMARK    5  A    between atoms: _7  and  _8
REMARK    6  A    between atoms: _11  and  _12
REMARK    7  A    between atoms: _17  and  _19
REMARK    8  A    between atoms: _19  and  _20
REMARK    9  A    between atoms: _19  and  _22
REMARK   10  A    between atoms: _25  and  _27
REMARK   11  A    between atoms: _27  and  _28
REMARK   12  A    between atoms: _30  and  _32
REMARK   13  A    between atoms: _32  and  _33
REMARK   14  A    between atoms: _32  and  _35
REMARK   15  A    between atoms: _35  and  _36
REMARK   16  A    between atoms: _39  and  _41
REMARK   17  A    between atoms: _41  and  _42
REMARK   18  A    between atoms: _45  and  _47
REMARK   19  A    between atoms: _47  and  _48
REMARK   20  A    between atoms: _51  and  _53
REMARK   21  A    between atoms: _53  and  _54
REMARK   22  A    between atoms: _53  and  _56
REMARK   23  A    between atoms: _56  and  _57
REMARK   24  A    between atoms: _60  and  _62
REMARK   25  A    between atoms: _62  and  _63
REMARK   26  A    between atoms: _62  and  _65
REMARK   27  A    between atoms: _65  and  _66
REMARK   28  A    between atoms: _69  and  _71
REMARK   29  A    between atoms: _71  and  _72
REMARK   30  A    between atoms: _74  and  _76
REMARK   31  A    between atoms: _76  and  _77
REMARK   32  A    between atoms: _76  and  _79
REMARK   33  A    between atoms: _79  and  _80
REMARK   34  A    between atoms: _85  and  _87
REMARK   35  A    between atoms: _87  and  _88
REMARK   36  A    between atoms: _87  and  _90
REMARK   37  A    between atoms: _90  and  _91
REMARK   38  A    between atoms: _94  and  _96
REMARK   39  A    between atoms: _96  and  _97
REMARK   40  A    between atoms: _96  and  _99
REMARK   41  A    between atoms: _99  and  _100
REMARK   42  A    between atoms: _105  and  _106
REMARK   43  A    between atoms: _108  and  _110
REMARK   44  A    between atoms: _110  and  _111
REMARK   45  A    between atoms: _110  and  _113
REMARK   46  A    between atoms: _113  and  _114
REMARK   47  A    between atoms: _119  and  _121
REMARK   48  A    between atoms: _121  and  _122
REMARK   49  A    between atoms: _121  and  _124
REMARK   50  A    between atoms: _124  and  _125
REMARK   51  A    between atoms: _128  and  _130
REMARK   52  A    between atoms: _130  and  _131
REMARK   53  A    between atoms: _130  and  _133
REMARK   54  A    between atoms: _133  and  _134
REMARK   55  A    between atoms: _137  and  _139
REMARK   56  A    between atoms: _139  and  _140
REMARK   57  A    between atoms: _139  and  _142
REMARK   58  A    between atoms: _142  and  _143
REMARK   59  A    between atoms: _146  and  _148
REMARK   60  A    between atoms: _148  and  _149
REMARK   61  A    between atoms: _148  and  _151
REMARK   62  A    between atoms: _151  and  _152
REMARK   63  A    between atoms: _155  and  _157
REMARK   64  A    between atoms: _157  and  _158
REMARK   65  A    between atoms: _157  and  _160
REMARK   66  A    between atoms: _160  and  _161
REMARK   67  A    between atoms: _163  and  _165
REMARK   68  A    between atoms: _165  and  _166
REMARK   69  A    between atoms: _168  and  _170
REMARK   70  A    between atoms: _170  and  _171
REMARK   71  A    between atoms: _173  and  _175
REMARK   72  A    between atoms: _175  and  _176
REMARK   73  A    between atoms: _175  and  _178
REMARK   74  A    between atoms: _178  and  _179
REMARK   75  A    between atoms: _184  and  _185
REMARK   76  A    between atoms: _187  and  _189
REMARK   77  A    between atoms: _189  and  _190
REMARK   78  A    between atoms: _189  and  _192
REMARK   79  A    between atoms: _192  and  _193
REMARK   80  A    between atoms: _193  and  _194
REMARK   81  A    between atoms: _199  and  _201
REMARK   82  A    between atoms: _201  and  _202
REMARK   83  A    between atoms: _201  and  _204
REMARK   84  A    between atoms: _207  and  _209
REMARK   85  A    between atoms: _209  and  _210
REMARK   86  A    between atoms: _209  and  _212
REMARK   87  A    between atoms: _212  and  _213
REMARK   88  A    between atoms: _213  and  _214
REMARK   89  A    between atoms: _216  and  _218
REMARK   90  A    between atoms: _218  and  _219
REMARK   91  A    between atoms: _218  and  _221
REMARK   92  A    between atoms: _221  and  _222
REMARK   93  A    between atoms: _224  and  _226
REMARK   94  A    between atoms: _226  and  _227
REMARK   95  A    between atoms: _226  and  _229
REMARK   96  A    between atoms: _229  and  _230
REMARK   97  A    between atoms: _230  and  _231
REMARK   98  A    between atoms: _236  and  _238
REMARK   99  A    between atoms: _238  and  _239
REMARK  100  A    between atoms: _238  and  _241
REMARK  101  A    between atoms: _241  and  _242
REMARK  102  A    between atoms: _242  and  _243
REMARK  103  A    between atoms: _245  and  _247
REMARK  104  A    between atoms: _247  and  _248
REMARK  105  A    between atoms: _251  and  _253
REMARK  106  A    between atoms: _253  and  _254
REMARK  107  A    between atoms: _253  and  _256
REMARK  108  A    between atoms: _256  and  _257
REMARK  109  A    between atoms: _263  and  _265
REMARK  110  A    between atoms: _265  and  _266
REMARK  111  A    between atoms: _265  and  _268
REMARK  112  A    between atoms: _268  and  _269
REMARK  113  A    between atoms: _272  and  _274
REMARK  114  A    between atoms: _274  and  _275
REMARK  115  A    between atoms: _274  and  _277
REMARK  116  A    between atoms: _277  and  _278
REMARK  117  A    between atoms: _278  and  _279
REMARK  118  A    between atoms: _282  and  _284
REMARK  119  A    between atoms: _284  and  _285
REMARK  120  A    between atoms: _284  and  _287
REMARK  121  A    between atoms: _289  and  _291
REMARK  122  A    between atoms: _291  and  _292
REMARK  123  A    between atoms: _291  and  _294
REMARK  124  A    between atoms: _294  and  _295
REMARK  125  A    between atoms: _298  and  _300
REMARK  126  A    between atoms: _300  and  _301
REMARK  127  A    between atoms: _300  and  _303
REMARK  128  A    between atoms: _303  and  _304
REMARK  129  A    between atoms: _306  and  _308
REMARK  130  A    between atoms: _308  and  _309
REMARK  131  A    between atoms: _308  and  _311
REMARK  132  A    between atoms: _311  and  _312
REMARK  133  A    between atoms: _315  and  _317
REMARK  134  A    between atoms: _317  and  _318
REMARK  135  A    between atoms: _317  and  _320
REMARK  136  A    between atoms: _320  and  _321
REMARK  137  A    between atoms: _321  and  _322
REMARK  138  A    between atoms: _327  and  _329
REMARK  139  A    between atoms: _329  and  _330
REMARK  140  A    between atoms: _329  and  _332
REMARK  141  A    between atoms: _332  and  _333
REMARK  142  A    between atoms: _333  and  _334
REMARK  143  A    between atoms: _339  and  _341
REMARK  144  A    between atoms: _341  and  _342
REMARK  145  A    between atoms: _344  and  _346
REMARK  146  A    between atoms: _346  and  _347
REMARK  147  A    between atoms: _346  and  _349
REMARK  148  A    between atoms: _349  and  _350
REMARK  149  A    between atoms: _352  and  _354
REMARK  150  A    between atoms: _354  and  _355
REMARK  151  A    between atoms: _354  and  _357
REMARK  152  A    between atoms: _357  and  _358
REMARK  153  A    between atoms: _358  and  _359
REMARK  154  A    between atoms: _359  and  _360
REMARK  155  A    between atoms: _369  and  _371
REMARK  156  A    between atoms: _371  and  _372
REMARK  157  A    between atoms: _375  and  _377
REMARK  158  A    between atoms: _377  and  _378
REMARK  159  A    between atoms: _377  and  _380
REMARK  160  A    between atoms: _383  and  _385
REMARK  161  A    between atoms: _385  and  _386
REMARK  162  A    between atoms: _388  and  _390
REMARK  163  A    between atoms: _390  and  _391
REMARK  164  A    between atoms: _393  and  _395
REMARK  165  A    between atoms: _395  and  _396
REMARK  166  A    between atoms: _395  and  _398
REMARK  167  A    between atoms: _398  and  _399
REMARK  168  A    between atoms: _402  and  _404
REMARK  169  A    between atoms: _404  and  _405
REMARK  170  A    between atoms: _408  and  _410
REMARK  171  A    between atoms: _410  and  _411
REMARK  172  A    between atoms: _410  and  _413
REMARK  173  A    between atoms: _416  and  _418
REMARK  174  A    between atoms: _418  and  _419
REMARK  175  A    between atoms: _421  and  _423
REMARK  176  A    between atoms: _423  and  _424
REMARK  177  A    between atoms: _423  and  _426
REMARK  178  A    between atoms: _426  and  _427
REMARK  179  A    between atoms: _427  and  _428
REMARK  180  A    between atoms: _431  and  _433
REMARK  181  A    between atoms: _433  and  _434
REMARK  182  A    between atoms: _433  and  _436
REMARK  183  A    between atoms: _436  and  _437
REMARK  184  A    between atoms: _442  and  _443
REMARK  185  A    between atoms: _445  and  _447
REMARK  186  A    between atoms: _447  and  _448
REMARK  187  A    between atoms: _447  and  _450
REMARK  188  A    between atoms: _450  and  _451
REMARK  189  A    between atoms: _454  and  _456
REMARK  190  A    between atoms: _456  and  _457
REMARK  191  A    between atoms: _456  and  _459
REMARK  192  A    between atoms: _459  and  _460
REMARK  193  A    between atoms: _460  and  _461
REMARK  194  A    between atoms: _463  and  _465
REMARK  195  A    between atoms: _465  and  _466
REMARK  196  A    between atoms: _468  and  _470
REMARK  197  A    between atoms: _470  and  _471
REMARK  198  A    between atoms: _470  and  _473
REMARK  199  A    between atoms: _476  and  _478
REMARK  200  A    between atoms: _478  and  _479
REMARK  201  A    between atoms: _481  and  _483
REMARK  202  A    between atoms: _483  and  _484
REMARK  203  A    between atoms: _483  and  _486
REMARK  204  A    between atoms: _486  and  _487
REMARK  205  A    between atoms: _493  and  _495
REMARK  206  A    between atoms: _495  and  _496
REMARK  207  A    between atoms: _495  and  _498
REMARK  208  A    between atoms: _498  and  _499
REMARK  209  A    between atoms: _502  and  _504
REMARK  210  A    between atoms: _504  and  _505
REMARK  211  A    between atoms: _504  and  _507
REMARK  212  A    between atoms: _509  and  _511
REMARK  213  A    between atoms: _511  and  _512
REMARK  214  A    between atoms: _511  and  _514
REMARK  215  A    between atoms: _517  and  _519
REMARK  216  A    between atoms: _519  and  _520
REMARK  217  A    between atoms: _519  and  _522
REMARK  218  A    between atoms: _522  and  _523
REMARK  219  A    between atoms: _526  and  _528
REMARK  220  A    between atoms: _528  and  _529
REMARK  221  A    between atoms: _528  and  _531
REMARK  222  A    between atoms: _531  and  _532
REMARK  223  A    between atoms: _532  and  _533
REMARK  224  A    between atoms: _533  and  _534
REMARK                            x       y       z     vdW  Elec       q    Type
REMARK                         _______ _______ _______ _____ _____    ______ ____
ROOT
ATOM      1  NE  ARG A   1      19.635  17.336  95.840  0.00  0.00    -0.265 N 
ATOM      2  HE  ARG A   1      20.178  18.184  95.581  0.00  0.00    +0.259 HD
ATOM      3  CZ  ARG A   1      18.449  17.169  95.265  0.00  0.00    +0.342 C 
ATOM      4  NH2 ARG A   1      17.716  16.091  95.523  0.00  0.00    -0.292 N 
ATOM      5 HH21 ARG A   1      18.069  15.367  96.181  0.00  0.00    +0.255 HD
ATOM      6 HH22 ARG A   1      16.789  15.971  95.067  0.00  0.00    +0.255 HD
ATOM      7  NH1 ARG A   1      17.992  18.089  94.425  0.00  0.00    -0.292 N 
ATOM      8 HH11 ARG A   1      18.561  18.935  94.220  0.00  0.00    +0.255 HD
ATOM      9 HH12 ARG A   1      17.064  17.964  93.972  0.00  0.00    +0.255 HD
ENDROOT
BRANCH   1  10
ATOM     10  CD  ARG A   1      20.237  16.422  96.808  0.00  0.00    +0.174 C 
BRANCH  10  11
ATOM     11  CG  ARG A   1      21.575  16.954  97.310  0.00  0.00    +0.045 C 
BRANCH  11  12
ATOM     12  CB  ARG A   1      22.096  16.112  98.465  0.00  0.00    +0.029 C 
BRANCH  12  13
ATOM     13  CA  ARG A   1      21.444  16.440  99.811  0.00  0.00    +0.133 C 
BRANCH  13  14
ATOM     14  N   ARG A   1      21.944  17.716 100.308  0.00  0.00    -0.239 NA
ATOM     15  H   ARG A   1      22.679  18.218  99.770  0.00  0.00    +0.142 HD
ENDBRANCH  13  14
BRANCH  13  16
ATOM     16  C   ARG A   1      21.695  15.329 100.839  0.00  0.00    +0.224 C 
ATOM     17  O   ARG A   1      20.838  14.471 101.058  0.00  0.00    -0.287 OA
ENDBRANCH  13  16
ENDBRANCH  12  13
ENDBRANCH  11  12
ENDBRANCH  10  11
ENDBRANCH   1  10
TORSDOF 6
REMARK  Name = ../refined-set-2016/4lbu/4lbu_pocket.pdb
REMARK  224 active torsions:
REMARK  status: ('A' for Active; 'I' for Inactive)
REMARK    1  A    between atoms: _1  and  _3
REMARK    2  A    between atoms: _3  and  _4
REMARK    3  A    between atoms: _3  and  _6
REMARK    4  A    between atoms: _6  and  _7
REMARK    5  A    between atoms: _7  and  _8
REMARK    6  A    between atoms: _11  and  _12
REMARK    7  A    between atoms: _17  and  _19
REMARK    8  A    between atoms: _19  and  _20
REMARK    9  A    between atoms: _19  and  _22
REMARK   10  A    between atoms: _25  and  _27
REMARK   11  A    between atoms: _27  and  _28
REMARK   12  A    between atoms: _30  and  _32
REMARK   13  A    between atoms: _32  and  _33
REMARK   14  A    between atoms: _32  and  _35
REMARK   15  A    between atoms: _35  and  _36
REMARK   16  A    between atoms: _39  and  _41
REMARK   17  A    between atoms: _41  and  _42
REMARK   18  A    between atoms: _45  and  _47
REMARK   19  A    between atoms: _47  and  _48
REMARK   20  A    between atoms: _51  and  _53
REMARK   21  A    between atoms: _53  and  _54
REMARK   22  A    between atoms: _53  and  _56
REMARK   23  A    between atoms: _56  and  _57
REMARK   24  A    between atoms: _60  and  _62
REMARK   25  A    between atoms: _62  and  _63
REMARK   26  A    between atoms: _62  and  _65
REMARK   27  A    between atoms: _65  and  _66
REMARK   28  A    between atoms: _69  and  _71
REMARK   29  A    between atoms: _71  and  _72
REMARK   30  A    between atoms: _74  and  _76
REMARK   31  A    between atoms: _76  and  _77
REMARK   32  A    between atoms: _76  and  _79
REMARK   33  A    between atoms: _79  and  _80
REMARK   34  A    between atoms: _85  and  _87
REMARK   35  A    between atoms: _87  and  _88
REMARK   36  A    between atoms: _87  and  _90
REMARK   37  A    between atoms: _90  and  _91
REMARK   38  A    between atoms: _94  and  _96
REMARK   39  A    between atoms: _96  and  _97
REMARK   40  A    between atoms: _96  and  _99
REMARK   41  A    between atoms: _99  and  _100
REMARK   42  A    between atoms: _105  and  _106
REMARK   43  A    between atoms: _108  and  _110
REMARK   44  A    between atoms: _110  and  _111
REMARK   45  A    between atoms: _110  and  _113
REMARK   46  A    between atoms: _113  and  _114
REMARK   47  A    between atoms: _119  and  _121
REMARK   48  A    between atoms: _121  and  _122
REMARK   49  A    between atoms: _121  and  _124
REMARK   50  A    between atoms: _124  and  _125
REMARK   51  A    between atoms: _128  and  _130
REMARK   52  A    between atoms: _130  and  _131
REMARK   53  A    between atoms: _130  and  _133
REMARK   54  A    between atoms: _133  and  _134
REMARK   55  A    between atoms: _137  and  _139
REMARK   56  A    between atoms: _139  and  _140
REMARK   57  A    between atoms: _139  and  _142
REMARK   58  A    between atoms: _142  and  _143
REMARK   59  A    between atoms: _146  and  _148
REMARK   60  A    between atoms: _148  and  _149
REMARK   61  A    between atoms: _148  and  _151
REMARK   62  A    between atoms: _151  and  _152
REMARK   63  A    between atoms: _155  and  _157
REMARK   64  A    between atoms: _157  and  _158
REMARK   65  A    between atoms: _157  and  _160
REMARK   66  A    between atoms: _160  and  _161
REMARK   67  A    between atoms: _163  and  _165
REMARK   68  A    between atoms: _165  and  _166
REMARK   69  A    between atoms: _168  and  _170
REMARK   70  A    between atoms: _170  and  _171
REMARK   71  A    between atoms: _173  and  _175
REMARK   72  A    between atoms: _175  and  _176
REMARK   73  A    between atoms: _175  and  _178
REMARK   74  A    between atoms: _178  and  _179
REMARK   75  A    between atoms: _184  and  _185
REMARK   76  A    between atoms: _187  and  _189
REMARK   77  A    between atoms: _189  and  _190
REMARK   78  A    between atoms: _189  and  _192
REMARK   79  A    between atoms: _192  and  _193
REMARK   80  A    between atoms: _193  and  _194
REMARK   81  A    between atoms: _199  and  _201
REMARK   82  A    between atoms: _201  and  _202
REMARK   83  A    between atoms: _201  and  _204
REMARK   84  A    between atoms: _207  and  _209
REMARK   85  A    between atoms: _209  and  _210
REMARK   86  A    between atoms: _209  and  _212
REMARK   87  A    between atoms: _212  and  _213
REMARK   88  A    between atoms: _213  and  _214
REMARK   89  A    between atoms: _216  and  _218
REMARK   90  A    between atoms: _218  and  _219
REMARK   91  A    between atoms: _218  and  _221
REMARK   92  A    between atoms: _221  and  _222
REMARK   93  A    between atoms: _224  and  _226
REMARK   94  A    between atoms: _226  and  _227
REMARK   95  A    between atoms: _226  and  _229
REMARK   96  A    between atoms: _229  and  _230
REMARK   97  A    between atoms: _230  and  _231
REMARK   98  A    between atoms: _236  and  _238
REMARK   99  A    between atoms: _238  and  _239
REMARK  100  A    between atoms: _238  and  _241
REMARK  101  A    between atoms: _241  and  _242
REMARK  102  A    between atoms: _242  and  _243
REMARK  103  A    between atoms: _245  and  _247
REMARK  104  A    between atoms: _247  and  _248
REMARK  105  A    between atoms: _251  and  _253
REMARK  106  A    between atoms: _253  and  _254
REMARK  107  A    between atoms: _253  and  _256
REMARK  108  A    between atoms: _256  and  _257
REMARK  109  A    between atoms: _263  and  _265
REMARK  110  A    between atoms: _265  and  _266
REMARK  111  A    between atoms: _265  and  _268
REMARK  112  A    between atoms: _268  and  _269
REMARK  113  A    between atoms: _272  and  _274
REMARK  114  A    between atoms: _274  and  _275
REMARK  115  A    between atoms: _274  and  _277
REMARK  116  A    between atoms: _277  and  _278
REMARK  117  A    between atoms: _278  and  _279
REMARK  118  A    between atoms: _282  and  _284
REMARK  119  A    between atoms: _284  and  _285
REMARK  120  A    between atoms: _284  and  _287
REMARK  121  A    between atoms: _289  and  _291
REMARK  122  A    between atoms: _291  and  _292
REMARK  123  A    between atoms: _291  and  _294
REMARK  124  A    between atoms: _294  and  _295
REMARK  125  A    between atoms: _298  and  _300
REMARK  126  A    between atoms: _300  and  _301
REMARK  127  A    between atoms: _300  and  _303
REMARK  128  A    between atoms: _303  and  _304
REMARK  129  A    between atoms: _306  and  _308
REMARK  130  A    between atoms: _308  and  _309
REMARK  131  A    between atoms: _308  and  _311
REMARK  132  A    between atoms: _311  and  _312
REMARK  133  A    between atoms: _315  and  _317
REMARK  134  A    between atoms: _317  and  _318
REMARK  135  A    between atoms: _317  and  _320
REMARK  136  A    between atoms: _320  and  _321
REMARK  137  A    between atoms: _321  and  _322
REMARK  138  A    between atoms: _327  and  _329
REMARK  139  A    between atoms: _329  and  _330
REMARK  140  A    between atoms: _329  and  _332
REMARK  141  A    between atoms: _332  and  _333
REMARK  142  A    between atoms: _333  and  _334
REMARK  143  A    between atoms: _339  and  _341
REMARK  144  A    between atoms: _341  and  _342
REMARK  145  A    between atoms: _344  and  _346
REMARK  146  A    between atoms: _346  and  _347
REMARK  147  A    between atoms: _346  and  _349
REMARK  148  A    between atoms: _349  and  _350
REMARK  149  A    between atoms: _352  and  _354
REMARK  150  A    between atoms: _354  and  _355
REMARK  151  A    between atoms: _354  and  _357
REMARK  152  A    between atoms: _357  and  _358
REMARK  153  A    between atoms: _358  and  _359
REMARK  154  A    between atoms: _359  and  _360
REMARK  155  A    between atoms: _369  and  _371
REMARK  156  A    between atoms: _371  and  _372
REMARK  157  A    between atoms: _375  and  _377
REMARK  158  A    between atoms: _377  and  _378
REMARK  159  A    between atoms: _377  and  _380
REMARK  160  A    between atoms: _383  and  _385
REMARK  161  A    between atoms: _385  and  _386
REMARK  162  A    between atoms: _388  and  _390
REMARK  163  A    between atoms: _390  and  _391
REMARK  164  A    between atoms: _393  and  _395
REMARK  165  A    between atoms: _395  and  _396
REMARK  166  A    between atoms: _395  and  _398
REMARK  167  A    between atoms: _398  and  _399
REMARK  168  A    between atoms: _402  and  _404
REMARK  169  A    between atoms: _404  and  _405
REMARK  170  A    between atoms: _408  and  _410
REMARK  171  A    between atoms: _410  and  _411
REMARK  172  A    between atoms: _410  and  _413
REMARK  173  A    between atoms: _416  and  _418
REMARK  174  A    between atoms: _418  and  _419
REMARK  175  A    between atoms: _421  and  _423
REMARK  176  A    between atoms: _423  and  _424
REMARK  177  A    between atoms: _423  and  _426
REMARK  178  A    between atoms: _426  and  _427
REMARK  179  A    between atoms: _427  and  _428
REMARK  180  A    between atoms: _431  and  _433
REMARK  181  A    between atoms: _433  and  _434
REMARK  182  A    between atoms: _433  and  _436
REMARK  183  A    between atoms: _436  and  _437
REMARK  184  A    between atoms: _442  and  _443
REMARK  185  A    between atoms: _445  and  _447
REMARK  186  A    between atoms: _447  and  _448
REMARK  187  A    between atoms: _447  and  _450
REMARK  188  A    between atoms: _450  and  _451
REMARK  189  A    between atoms: _454  and  _456
REMARK  190  A    between atoms: _456  and  _457
REMARK  191  A    between atoms: _456  and  _459
REMARK  192  A    between atoms: _459  and  _460
REMARK  193  A    between atoms: _460  and  _461
REMARK  194  A    between atoms: _463  and  _465
REMARK  195  A    between atoms: _465  and  _466
REMARK  196  A    between atoms: _468  and  _470
REMARK  197  A    between atoms: _470  and  _471
REMARK  198  A    between atoms: _470  and  _473
REMARK  199  A    between atoms: _476  and  _478
REMARK  200  A    between atoms: _478  and  _479
REMARK  201  A    between atoms: _481  and  _483
REMARK  202  A    between atoms: _483  and  _484
REMARK  203  A    between atoms: _483  and  _486
REMARK  204  A    between atoms: _486  and  _487
REMARK  205  A    between atoms: _493  and  _495
REMARK  206  A    between atoms: _495  and  _496
REMARK  207  A    between atoms: _495  and  _498
REMARK  208  A    between atoms: _498  and  _499
REMARK  209  A    between atoms: _502  and  _504
REMARK  210  A    between atoms: _504  and  _505
REMARK  211  A    between atoms: _504  and  _507
REMARK  212  A    between atoms: _509  and  _511
REMARK  213  A    between atoms: _511  and  _512
REMARK  214  A    between atoms: _511  and  _514
REMARK  215  A    between atoms: _517  and  _519
REMARK  216  A    between atoms: _519  and  _520
REMARK  217  A    between atoms: _519  and  _522
REMARK  218  A    between atoms: _522  and  _523
REMARK  219  A    between atoms: _526  and  _528
REMARK  220  A    between atoms: _528  and  _529
REMARK  221  A    between atoms: _528  and  _531
REMARK  222  A    between atoms: _531  and  _532
REMARK  223  A    between atoms: _532  and  _533
REMARK  224  A    between atoms: _533  and  _534
REMARK                            x       y       z     vdW  Elec       q    Type
REMARK                         _______ _______ _______ _____ _____    ______ ____
ROOT
ATOM      1  CA  LEU A   5      16.034  18.436  89.535  0.00  0.00    +0.149 C 
ENDROOT
BRANCH   1   4
ATOM      2  C   GLY A   4      15.347  19.397  91.657  0.00  0.00    +0.243 C 
ATOM      3  O   GLY A   4      16.159  20.319  91.547  0.00  0.00    -0.273 OA
ATOM      4  N   LEU A   5      15.244  18.418  90.762  0.00  0.00    -0.297 N 
ATOM      5  H   LEU A   5      14.591  17.628  90.939  0.00  0.00    +0.150 HD
BRANCH   2   6
ATOM      6  CA  GLY A   4      14.412  19.360  92.849  0.00  0.00    +0.176 C 
BRANCH   6   9
ATOM      7  C   GLY A   3      14.285  17.041  93.544  0.00  0.00    +0.243 C 
ATOM      8  O   GLY A   3      15.508  16.958  93.688  0.00  0.00    -0.273 OA
ATOM      9  N   GLY A   4      13.684  18.121  93.058  0.00  0.00    -0.295 N 
ATOM     10  H   GLY A   4      12.672  18.079  92.822  0.00  0.00    +0.150 HD
BRANCH   7  11
ATOM     11  CA  GLY A   3      13.380  15.877  93.890  0.00  0.00    +0.176 C 
BRANCH  11  13
ATOM     12  C   VAL A   2      14.504  13.774  93.430  0.00  0.00    +0.241 C 
ATOM     13  N   GLY A   3      14.137  14.711  94.298  0.00  0.00    -0.295 N 
ATOM     14  H   GLY A   3      14.401  14.604  95.298  0.00  0.00    +0.150 HD
ATOM     15  O   VAL A   2      14.134  13.763  92.248  0.00  0.00    -0.273 OA
BRANCH  12  16
ATOM     16  CA  VAL A   2      15.340  12.638  93.998  0.00  0.00    +0.148 C 
BRANCH  16  19
ATOM     17  C   ALA A   1      13.785  11.227  95.231  0.00  0.00    +0.238 C 
ATOM     18  O   ALA A   1      14.043  11.751  96.327  0.00  0.00    -0.274 OA
ATOM     19  N   VAL A   2      14.455  11.494  94.115  0.00  0.00    -0.297 N 
ATOM     20  H   VAL A   2      14.341  10.861  93.297  0.00  0.00    +0.150 HD
BRANCH  17  21
ATOM     21  CA  ALA A   1      12.668  10.206  95.087  0.00  0.00    +0.145 C 
ATOM     22  CB  ALA A   1      11.353  10.901  94.781  0.00  0.00    +0.028 C 
BRANCH  21  23
ATOM     23  N   ALA A   1      12.566   9.417  96.297  0.00  0.00    -0.238 NA
ATOM     24  H   ALA A   1      11.993   9.769  97.090  0.00  0.00    +0.142 HD
ENDBRANCH  21  23
ENDBRANCH  17  21
ENDBRANCH  16  19
BRANCH  16  25
ATOM     25  CB  VAL A   2      16.560  12.330  93.107  0.00  0.00    +0.027 C 
ATOM     26  CG2 VAL A   2      17.355  11.155  93.688  0.00  0.00    +0.002 C 
ATOM     27  CG1 VAL A   2      17.433  13.568  92.941  0.00  0.00    +0.002 C 
ENDBRANCH  16  25
ENDBRANCH  12  16
ENDBRANCH  11  13
ENDBRANCH   7  11
ENDBRANCH   6   9
ENDBRANCH   2   6
ENDBRANCH   1   4
BRANCH   1  28
ATOM     28  C   LEU A   5      15.100  18.518  88.323  0.00  0.00    +0.241 C 
ATOM     29  O   LEU A   5      13.884  18.594  88.492  0.00  0.00    -0.273 OA
ATOM     30  N   ALA A   6      15.662  18.525  87.117  0.00  0.00    -0.297 N 
ATOM     31  H   ALA A   6      16.682  18.344  87.026  0.00  0.00    +0.150 HD
BRANCH  30  32
ATOM     32  CA  ALA A   6      14.865  18.784  85.915  0.00  0.00    +0.149 C 
ATOM     33  CB  ALA A   6      13.957  17.587  85.573  0.00  0.00    +0.031 C 
BRANCH  32  34
ATOM     34  C   ALA A   6      14.064  20.086  86.065  0.00  0.00    +0.241 C 
ATOM     35  N   VAL A   7      14.743  21.117  86.562  0.00  0.00    -0.297 N 
ATOM     36  H   VAL A   7      15.738  20.978  86.832  0.00  0.00    +0.150 HD
ATOM     37  O   ALA A   6      12.876  20.159  85.739  0.00  0.00    -0.273 OA
BRANCH  35  38
ATOM     38  CA  VAL A   7      14.145  22.436  86.743  0.00  0.00    +0.149 C 
BRANCH  38  39
ATOM     39  C   VAL A   7      15.009  23.519  86.090  0.00  0.00    +0.241 C 
ATOM     40  O   VAL A   7      15.022  24.671  86.528  0.00  0.00    -0.273 OA
ATOM     41  N   GLY A   8      15.739  23.133  85.047  0.00  0.00    -0.295 N 
ATOM     42  H   GLY A   8      15.775  22.123  84.802  0.00  0.00    +0.150 HD
BRANCH  41  43
ATOM     43  CA  GLY A   8      16.487  24.083  84.241  0.00  0.00    +0.176 C 
BRANCH  43  44
ATOM     44  C   GLY A   8      17.992  24.035  84.422  0.00  0.00    +0.243 C 
ATOM     45  N   GLU A   9      18.476  23.087  85.219  0.00  0.00    -0.298 N 
ATOM     46  H   GLU A   9      17.831  22.379  85.624  0.00  0.00    +0.150 HD
ATOM     47  O   GLY A   8      18.713  24.841  83.837  0.00  0.00    -0.273 OA
BRANCH  45  48
ATOM     48  CA  GLU A   9      19.903  23.027  85.533  0.00  0.00    +0.137 C 
BRANCH  48  49
ATOM     49  C   GLU A   9      20.768  22.457  84.410  0.00  0.00    +0.227 C 
ATOM     50  O   GLU A   9      21.980  22.670  84.383  0.00  0.00    -0.286 OA
ENDBRANCH  48  49
BRANCH  48  51
ATOM     51  CB  GLU A   9      20.145  22.257  86.835  0.00  0.00    +0.039 C 
BRANCH  51  52
ATOM     52  CG  GLU A   9      19.985  20.744  86.738  0.00  0.00    +0.116 C 
BRANCH  52  53
ATOM     53  CD  GLU A   9      18.537  20.259  86.752  0.00  0.00    +0.365 C 
ATOM     54  OE2 GLU A   9      17.595  21.076  86.814  0.00  0.00    -0.246 OA
ATOM     55  OE1 GLU A   9      18.342  19.031  86.701  0.00  0.00    -0.246 OA
ENDBRANCH  52  53
ENDBRANCH  51  52
ENDBRANCH  48  51
ENDBRANCH  45  48
ENDBRANCH  43  44
ENDBRANCH  41  43
ENDBRANCH  38  39
BRANCH  38  56
ATOM     56  CB  VAL A   7      13.922  22.753  88.236  0.00  0.00    +0.027 C 
ATOM     57  CG2 VAL A   7      15.189  22.483  89.031  0.00  0.00    +0.002 C 
ATOM     58  CG1 VAL A   7      12.744  21.945  88.785  0.00  0.00    +0.002 C 
ENDBRANCH  38  56
ENDBRANCH  35  38
ENDBRANCH  32  34
ENDBRANCH  30  32
ENDBRANCH   1  28
BRANCH   1  59
ATOM     59  CB  LEU A   5      16.963  17.220  89.465  0.00  0.00    +0.029 C 
BRANCH  59  60
ATOM     60  CG  LEU A   5      18.037  17.182  90.563  0.00  0.00    +0.002 C 
ATOM     61  CD2 LEU A   5      18.935  18.420  90.509  0.00  0.00    +0.000 C 
ATOM     62  CD1 LEU A   5      18.879  15.911  90.480  0.00  0.00    +0.000 C 
ENDBRANCH  59  60
ENDBRANCH   1  59
TORSDOF 25
REMARK  Name = ../refined-set-2016/4lbu/4lbu_pocket.pdb
REMARK  224 active torsions:
REMARK  status: ('A' for Active; 'I' for Inactive)
REMARK    1  A    between atoms: _1  and  _3
REMARK    2  A    between atoms: _3  and  _4
REMARK    3  A    between atoms: _3  and  _6
REMARK    4  A    between atoms: _6  and  _7
REMARK    5  A    between atoms: _7  and  _8
REMARK    6  A    between atoms: _11  and  _12
REMARK    7  A    between atoms: _17  and  _19
REMARK    8  A    between atoms: _19  and  _20
REMARK    9  A    between atoms: _19  and  _22
REMARK   10  A    between atoms: _25  and  _27
REMARK   11  A    between atoms: _27  and  _28
REMARK   12  A    between atoms: _30  and  _32
REMARK   13  A    between atoms: _32  and  _33
REMARK   14  A    between atoms: _32  and  _35
REMARK   15  A    between atoms: _35  and  _36
REMARK   16  A    between atoms: _39  and  _41
REMARK   17  A    between atoms: _41  and  _42
REMARK   18  A    between atoms: _45  and  _47
REMARK   19  A    between atoms: _47  and  _48
REMARK   20  A    between atoms: _51  and  _53
REMARK   21  A    between atoms: _53  and  _54
REMARK   22  A    between atoms: _53  and  _56
REMARK   23  A    between atoms: _56  and  _57
REMARK   24  A    between atoms: _60  and  _62
REMARK   25  A    between atoms: _62  and  _63
REMARK   26  A    between atoms: _62  and  _65
REMARK   27  A    between atoms: _65  and  _66
REMARK   28  A    between atoms: _69  and  _71
REMARK   29  A    between atoms: _71  and  _72
REMARK   30  A    between atoms: _74  and  _76
REMARK   31  A    between atoms: _76  and  _77
REMARK   32  A    between atoms: _76  and  _79
REMARK   33  A    between atoms: _79  and  _80
REMARK   34  A    between atoms: _85  and  _87
REMARK   35  A    between atoms: _87  and  _88
REMARK   36  A    between atoms: _87  and  _90
REMARK   37  A    between atoms: _90  and  _91
REMARK   38  A    between atoms: _94  and  _96
REMARK   39  A    between atoms: _96  and  _97
REMARK   40  A    between atoms: _96  and  _99
REMARK   41  A    between atoms: _99  and  _100
REMARK   42  A    between atoms: _105  and  _106
REMARK   43  A    between atoms: _108  and  _110
REMARK   44  A    between atoms: _110  and  _111
REMARK   45  A    between atoms: _110  and  _113
REMARK   46  A    between atoms: _113  and  _114
REMARK   47  A    between atoms: _119  and  _121
REMARK   48  A    between atoms: _121  and  _122
REMARK   49  A    between atoms: _121  and  _124
REMARK   50  A    between atoms: _124  and  _125
REMARK   51  A    between atoms: _128  and  _130
REMARK   52  A    between atoms: _130  and  _131
REMARK   53  A    between atoms: _130  and  _133
REMARK   54  A    between atoms: _133  and  _134
REMARK   55  A    between atoms: _137  and  _139
REMARK   56  A    between atoms: _139  and  _140
REMARK   57  A    between atoms: _139  and  _142
REMARK   58  A    between atoms: _142  and  _143
REMARK   59  A    between atoms: _146  and  _148
REMARK   60  A    between atoms: _148  and  _149
REMARK   61  A    between atoms: _148  and  _151
REMARK   62  A    between atoms: _151  and  _152
REMARK   63  A    between atoms: _155  and  _157
REMARK   64  A    between atoms: _157  and  _158
REMARK   65  A    between atoms: _157  and  _160
REMARK   66  A    between atoms: _160  and  _161
REMARK   67  A    between atoms: _163  and  _165
REMARK   68  A    between atoms: _165  and  _166
REMARK   69  A    between atoms: _168  and  _170
REMARK   70  A    between atoms: _170  and  _171
REMARK   71  A    between atoms: _173  and  _175
REMARK   72  A    between atoms: _175  and  _176
REMARK   73  A    between atoms: _175  and  _178
REMARK   74  A    between atoms: _178  and  _179
REMARK   75  A    between atoms: _184  and  _185
REMARK   76  A    between atoms: _187  and  _189
REMARK   77  A    between atoms: _189  and  _190
REMARK   78  A    between atoms: _189  and  _192
REMARK   79  A    between atoms: _192  and  _193
REMARK   80  A    between atoms: _193  and  _194
REMARK   81  A    between atoms: _199  and  _201
REMARK   82  A    between atoms: _201  and  _202
REMARK   83  A    between atoms: _201  and  _204
REMARK   84  A    between atoms: _207  and  _209
REMARK   85  A    between atoms: _209  and  _210
REMARK   86  A    between atoms: _209  and  _212
REMARK   87  A    between atoms: _212  and  _213
REMARK   88  A    between atoms: _213  and  _214
REMARK   89  A    between atoms: _216  and  _218
REMARK   90  A    between atoms: _218  and  _219
REMARK   91  A    between atoms: _218  and  _221
REMARK   92  A    between atoms: _221  and  _222
REMARK   93  A    between atoms: _224  and  _226
REMARK   94  A    between atoms: _226  and  _227
REMARK   95  A    between atoms: _226  and  _229
REMARK   96  A    between atoms: _229  and  _230
REMARK   97  A    between atoms: _230  and  _231
REMARK   98  A    between atoms: _236  and  _238
REMARK   99  A    between atoms: _238  and  _239
REMARK  100  A    between atoms: _238  and  _241
REMARK  101  A    between atoms: _241  and  _242
REMARK  102  A    between atoms: _242  and  _243
REMARK  103  A    between atoms: _245  and  _247
REMARK  104  A    between atoms: _247  and  _248
REMARK  105  A    between atoms: _251  and  _253
REMARK  106  A    between atoms: _253  and  _254
REMARK  107  A    between atoms: _253  and  _256
REMARK  108  A    between atoms: _256  and  _257
REMARK  109  A    between atoms: _263  and  _265
REMARK  110  A    between atoms: _265  and  _266
REMARK  111  A    between atoms: _265  and  _268
REMARK  112  A    between atoms: _268  and  _269
REMARK  113  A    between atoms: _272  and  _274
REMARK  114  A    between atoms: _274  and  _275
REMARK  115  A    between atoms: _274  and  _277
REMARK  116  A    between atoms: _277  and  _278
REMARK  117  A    between atoms: _278  and  _279
REMARK  118  A    between atoms: _282  and  _284
REMARK  119  A    between atoms: _284  and  _285
REMARK  120  A    between atoms: _284  and  _287
REMARK  121  A    between atoms: _289  and  _291
REMARK  122  A    between atoms: _291  and  _292
REMARK  123  A    between atoms: _291  and  _294
REMARK  124  A    between atoms: _294  and  _295
REMARK  125  A    between atoms: _298  and  _300
REMARK  126  A    between atoms: _300  and  _301
REMARK  127  A    between atoms: _300  and  _303
REMARK  128  A    between atoms: _303  and  _304
REMARK  129  A    between atoms: _306  and  _308
REMARK  130  A    between atoms: _308  and  _309
REMARK  131  A    between atoms: _308  and  _311
REMARK  132  A    between atoms: _311  and  _312
REMARK  133  A    between atoms: _315  and  _317
REMARK  134  A    between atoms: _317  and  _318
REMARK  135  A    between atoms: _317  and  _320
REMARK  136  A    between atoms: _320  and  _321
REMARK  137  A    between atoms: _321  and  _322
REMARK  138  A    between atoms: _327  and  _329
REMARK  139  A    between atoms: _329  and  _330
REMARK  140  A    between atoms: _329  and  _332
REMARK  141  A    between atoms: _332  and  _333
REMARK  142  A    between atoms: _333  and  _334
REMARK  143  A    between atoms: _339  and  _341
REMARK  144  A    between atoms: _341  and  _342
REMARK  145  A    between atoms: _344  and  _346
REMARK  146  A    between atoms: _346  and  _347
REMARK  147  A    between atoms: _346  and  _349
REMARK  148  A    between atoms: _349  and  _350
REMARK  149  A    between atoms: _352  and  _354
REMARK  150  A    between atoms: _354  and  _355
REMARK  151  A    between atoms: _354  and  _357
REMARK  152  A    between atoms: _357  and  _358
REMARK  153  A    between atoms: _358  and  _359
REMARK  154  A    between atoms: _359  and  _360
REMARK  155  A    between atoms: _369  and  _371
REMARK  156  A    between atoms: _371  and  _372
REMARK  157  A    between atoms: _375  and  _377
REMARK  158  A    between atoms: _377  and  _378
REMARK  159  A    between atoms: _377  and  _380
REMARK  160  A    between atoms: _383  and  _385
REMARK  161  A    between atoms: _385  and  _386
REMARK  162  A    between atoms: _388  and  _390
REMARK  163  A    between atoms: _390  and  _391
REMARK  164  A    between atoms: _393  and  _395
REMARK  165  A    between atoms: _395  and  _396
REMARK  166  A    between atoms: _395  and  _398
REMARK  167  A    between atoms: _398  and  _399
REMARK  168  A    between atoms: _402  and  _404
REMARK  169  A    between atoms: _404  and  _405
REMARK  170  A    between atoms: _408  and  _410
REMARK  171  A    between atoms: _410  and  _411
REMARK  172  A    between atoms: _410  and  _413
REMARK  173  A    between atoms: _416  and  _418
REMARK  174  A    between atoms: _418  and  _419
REMARK  175  A    between atoms: _421  and  _423
REMARK  176  A    between atoms: _423  and  _424
REMARK  177  A    between atoms: _423  and  _426
REMARK  178  A    between atoms: _426  and  _427
REMARK  179  A    between atoms: _427  and  _428
REMARK  180  A    between atoms: _431  and  _433
REMARK  181  A    between atoms: _433  and  _434
REMARK  182  A    between atoms: _433  and  _436
REMARK  183  A    between atoms: _436  and  _437
REMARK  184  A    between atoms: _442  and  _443
REMARK  185  A    between atoms: _445  and  _447
REMARK  186  A    between atoms: _447  and  _448
REMARK  187  A    between atoms: _447  and  _450
REMARK  188  A    between atoms: _450  and  _451
REMARK  189  A    between atoms: _454  and  _456
REMARK  190  A    between atoms: _456  and  _457
REMARK  191  A    between atoms: _456  and  _459
REMARK  192  A    between atoms: _459  and  _460
REMARK  193  A    between atoms: _460  and  _461
REMARK  194  A    between atoms: _463  and  _465
REMARK  195  A    between atoms: _465  and  _466
REMARK  196  A    between atoms: _468  and  _470
REMARK  197  A    between atoms: _470  and  _471
REMARK  198  A    between atoms: _470  and  _473
REMARK  199  A    between atoms: _476  and  _478
REMARK  200  A    between atoms: _478  and  _479
REMARK  201  A    between atoms: _481  and  _483
REMARK  202  A    between atoms: _483  and  _484
REMARK  203  A    between atoms: _483  and  _486
REMARK  204  A    between atoms: _486  and  _487
REMARK  205  A    between atoms: _493  and  _495
REMARK  206  A    between atoms: _495  and  _496
REMARK  207  A    between atoms: _495  and  _498
REMARK  208  A    between atoms: _498  and  _499
REMARK  209  A    between atoms: _502  and  _504
REMARK  210  A    between atoms: _504  and  _505
REMARK  211  A    between atoms: _504  and  _507
REMARK  212  A    between atoms: _509  and  _511
REMARK  213  A    between atoms: _511  and  _512
REMARK  214  A    between atoms: _511  and  _514
REMARK  215  A    between atoms: _517  and  _519
REMARK  216  A    between atoms: _519  and  _520
REMARK  217  A    between atoms: _519  and  _522
REMARK  218  A    between atoms: _522  and  _523
REMARK  219  A    between atoms: _526  and  _528
REMARK  220  A    between atoms: _528  and  _529
REMARK  221  A    between atoms: _528  and  _531
REMARK  222  A    between atoms: _531  and  _532
REMARK  223  A    between atoms: _532  and  _533
REMARK  224  A    between atoms: _533  and  _534
REMARK                            x       y       z     vdW  Elec       q    Type
REMARK                         _______ _______ _______ _____ _____    ______ ____
ROOT
ATOM      1  C   LEU A   2      12.850  11.466  88.975  0.00  0.00    +0.241 C 
ATOM      2  N   MET A   3      12.339  12.459  89.695  0.00  0.00    -0.297 N 
ATOM      3  H   MET A   3      12.831  12.778  90.554  0.00  0.00    +0.150 HD
ATOM      4  O   LEU A   2      12.393  11.123  87.883  0.00  0.00    -0.273 OA
ENDROOT
BRANCH   2   5
ATOM      5  CA  MET A   3      11.098  13.104  89.294  0.00  0.00    +0.149 C 
BRANCH   5   6
ATOM      6  C   MET A   3      11.322  14.034  88.106  0.00  0.00    +0.241 C 
ATOM      7  O   MET A   3      12.224  14.880  88.121  0.00  0.00    -0.273 OA
ATOM      8  N   GLY A   4      10.498  13.875  87.077  0.00  0.00    -0.295 N 
ATOM      9  H   GLY A   4       9.837  13.072  87.077  0.00  0.00    +0.150 HD
BRANCH   8  10
ATOM     10  CA  GLY A   4      10.496  14.792  85.952  0.00  0.00    +0.176 C 
BRANCH  10  11
ATOM     11  C   GLY A   4      11.472  14.506  84.829  0.00  0.00    +0.243 C 
ATOM     12  N   VAL A   5      12.226  13.419  84.929  0.00  0.00    -0.297 N 
ATOM     13  H   VAL A   5      12.110  12.789  85.748  0.00  0.00    +0.150 HD
ATOM     14  O   GLY A   4      11.538  15.269  83.873  0.00  0.00    -0.273 OA
BRANCH  12  15
ATOM     15  CA  VAL A   5      13.216  13.093  83.908  0.00  0.00    +0.149 C 
BRANCH  15  16
ATOM     16  C   VAL A   5      12.723  11.926  83.052  0.00  0.00    +0.241 C 
ATOM     17  O   VAL A   5      12.216  10.944  83.594  0.00  0.00    -0.273 OA
ATOM     18  N   GLY A   6      12.835  12.012  81.722  0.00  0.00    -0.296 N 
ATOM     19  H   GLY A   6      12.499  11.201  81.164  0.00  0.00    +0.150 HD
BRANCH  18  20
ATOM     20  CA  GLY A   6      13.387  13.142  80.986  0.00  0.00    +0.163 C 
BRANCH  20  21
ATOM     21  C   GLY A   6      13.578  12.719  79.534  0.00  0.00    +0.229 C 
ATOM     22  O   GLY A   6      12.891  11.817  79.056  0.00  0.00    -0.286 OA
ENDBRANCH  20  21
ENDBRANCH  18  20
ENDBRANCH  15  16
BRANCH  15  23
ATOM     23  CB  VAL A   5      14.560  12.779  84.584  0.00  0.00    +0.027 C 
ATOM     24  CG2 VAL A   5      15.075  14.035  85.265  0.00  0.00    +0.002 C 
ATOM     25  CG1 VAL A   5      15.566  12.231  83.594  0.00  0.00    +0.002 C 
ENDBRANCH  15  23
ENDBRANCH  12  15
ENDBRANCH  10  11
ENDBRANCH   8  10
ENDBRANCH   5   6
BRANCH   5  26
ATOM     26  CB  MET A   3      10.500  13.878  90.471  0.00  0.00    +0.041 C 
BRANCH  26  27
ATOM     27  CG  MET A   3      10.404  13.043  91.738  0.00  0.00    +0.060 C 
BRANCH  27  28
ATOM     28  SD  MET A   3       9.417  13.776  93.058  0.00  0.00    -0.139 S 
ATOM     29  CE  MET A   3       7.782  13.439  92.402  0.00  0.00    +0.069 C 
ENDBRANCH  27  28
ENDBRANCH  26  27
ENDBRANCH   5  26
ENDBRANCH   2   5
BRANCH   1  30
ATOM     30  CA  LEU A   2      14.040  10.741  89.592  0.00  0.00    +0.149 C 
BRANCH  30  33
ATOM     31  C   TYR A   1      13.218   9.185  91.269  0.00  0.00    +0.239 C 
ATOM     32  O   TYR A   1      13.209  10.061  92.126  0.00  0.00    -0.274 OA
ATOM     33  N   LEU A   2      13.638   9.405  90.025  0.00  0.00    -0.297 N 
ATOM     34  H   LEU A   2      13.681   8.614  89.351  0.00  0.00    +0.150 HD
BRANCH  31  35
ATOM     35  CA  TYR A   1      12.765   7.764  91.606  0.00  0.00    +0.149 C 
BRANCH  35  36
ATOM     36  N   TYR A   1      13.662   7.189  92.606  0.00  0.00    -0.238 NA
ATOM     37  H   TYR A   1      13.715   7.631  93.546  0.00  0.00    +0.142 HD
ENDBRANCH  35  36
BRANCH  35  38
ATOM     38  CB  TYR A   1      11.333   7.724  92.162  0.00  0.00    +0.053 C 
BRANCH  38  39
ATOM     39  CG  TYR A   1      10.279   8.557  91.460  0.00  0.00    -0.020 A 
ATOM     40  CD2 TYR A   1       9.152   8.974  92.156  0.00  0.00    -0.001 A 
ATOM     41  CE2 TYR A   1       8.179   9.755  91.560  0.00  0.00    +0.036 A 
ATOM     42  CZ  TYR A   1       8.307  10.115  90.235  0.00  0.00    +0.134 A 
ATOM     43  CE1 TYR A   1       9.413   9.708  89.494  0.00  0.00    +0.036 A 
ATOM     44  CD1 TYR A   1      10.388   8.915  90.113  0.00  0.00    -0.001 A 
BRANCH  42  45
ATOM     45  OH  TYR A   1       7.329  10.902  89.679  0.00  0.00    -0.506 OA
ATOM     46  HH  TYR A   1       7.550  11.080  88.731  0.00  0.00    +0.292 HD
ENDBRANCH  42  45
ENDBRANCH  38  39
ENDBRANCH  35  38
ENDBRANCH  31  35
ENDBRANCH  30  33
BRANCH  30  47
ATOM     47  CB  LEU A   2      15.207  10.657  88.616  0.00  0.00    +0.029 C 
BRANCH  47  48
ATOM     48  CG  LEU A   2      15.759  11.989  88.106  0.00  0.00    +0.002 C 
ATOM     49  CD2 LEU A   2      16.159  12.924  89.244  0.00  0.00    +0.000 C 
ATOM     50  CD1 LEU A   2      16.952  11.720  87.195  0.00  0.00    +0.000 C 
ENDBRANCH  47  48
ENDBRANCH  30  47
ENDBRANCH   1  30
TORSDOF 21
REMARK  Name = ../refined-set-2016/4lbu/4lbu_pocket.pdb
REMARK  224 active torsions:
REMARK  status: ('A' for Active; 'I' for Inactive)
REMARK    1  A    between atoms: _1  and  _3
REMARK    2  A    between atoms: _3  and  _4
REMARK    3  A    between atoms: _3  and  _6
REMARK    4  A    between atoms: _6  and  _7
REMARK    5  A    between atoms: _7  and  _8
REMARK    6  A    between atoms: _11  and  _12
REMARK    7  A    between atoms: _17  and  _19
REMARK    8  A    between atoms: _19  and  _20
REMARK    9  A    between atoms: _19  and  _22
REMARK   10  A    between atoms: _25  and  _27
REMARK   11  A    between atoms: _27  and  _28
REMARK   12  A    between atoms: _30  and  _32
REMARK   13  A    between atoms: _32  and  _33
REMARK   14  A    between atoms: _32  and  _35
REMARK   15  A    between atoms: _35  and  _36
REMARK   16  A    between atoms: _39  and  _41
REMARK   17  A    between atoms: _41  and  _42
REMARK   18  A    between atoms: _45  and  _47
REMARK   19  A    between atoms: _47  and  _48
REMARK   20  A    between atoms: _51  and  _53
REMARK   21  A    between atoms: _53  and  _54
REMARK   22  A    between atoms: _53  and  _56
REMARK   23  A    between atoms: _56  and  _57
REMARK   24  A    between atoms: _60  and  _62
REMARK   25  A    between atoms: _62  and  _63
REMARK   26  A    between atoms: _62  and  _65
REMARK   27  A    between atoms: _65  and  _66
REMARK   28  A    between atoms: _69  and  _71
REMARK   29  A    between atoms: _71  and  _72
REMARK   30  A    between atoms: _74  and  _76
REMARK   31  A    between atoms: _76  and  _77
REMARK   32  A    between atoms: _76  and  _79
REMARK   33  A    between atoms: _79  and  _80
REMARK   34  A    between atoms: _85  and  _87
REMARK   35  A    between atoms: _87  and  _88
REMARK   36  A    between atoms: _87  and  _90
REMARK   37  A    between atoms: _90  and  _91
REMARK   38  A    between atoms: _94  and  _96
REMARK   39  A    between atoms: _96  and  _97
REMARK   40  A    between atoms: _96  and  _99
REMARK   41  A    between atoms: _99  and  _100
REMARK   42  A    between atoms: _105  and  _106
REMARK   43  A    between atoms: _108  and  _110
REMARK   44  A    between atoms: _110  and  _111
REMARK   45  A    between atoms: _110  and  _113
REMARK   46  A    between atoms: _113  and  _114
REMARK   47  A    between atoms: _119  and  _121
REMARK   48  A    between atoms: _121  and  _122
REMARK   49  A    between atoms: _121  and  _124
REMARK   50  A    between atoms: _124  and  _125
REMARK   51  A    between atoms: _128  and  _130
REMARK   52  A    between atoms: _130  and  _131
REMARK   53  A    between atoms: _130  and  _133
REMARK   54  A    between atoms: _133  and  _134
REMARK   55  A    between atoms: _137  and  _139
REMARK   56  A    between atoms: _139  and  _140
REMARK   57  A    between atoms: _139  and  _142
REMARK   58  A    between atoms: _142  and  _143
REMARK   59  A    between atoms: _146  and  _148
REMARK   60  A    between atoms: _148  and  _149
REMARK   61  A    between atoms: _148  and  _151
REMARK   62  A    between atoms: _151  and  _152
REMARK   63  A    between atoms: _155  and  _157
REMARK   64  A    between atoms: _157  and  _158
REMARK   65  A    between atoms: _157  and  _160
REMARK   66  A    between atoms: _160  and  _161
REMARK   67  A    between atoms: _163  and  _165
REMARK   68  A    between atoms: _165  and  _166
REMARK   69  A    between atoms: _168  and  _170
REMARK   70  A    between atoms: _170  and  _171
REMARK   71  A    between atoms: _173  and  _175
REMARK   72  A    between atoms: _175  and  _176
REMARK   73  A    between atoms: _175  and  _178
REMARK   74  A    between atoms: _178  and  _179
REMARK   75  A    between atoms: _184  and  _185
REMARK   76  A    between atoms: _187  and  _189
REMARK   77  A    between atoms: _189  and  _190
REMARK   78  A    between atoms: _189  and  _192
REMARK   79  A    between atoms: _192  and  _193
REMARK   80  A    between atoms: _193  and  _194
REMARK   81  A    between atoms: _199  and  _201
REMARK   82  A    between atoms: _201  and  _202
REMARK   83  A    between atoms: _201  and  _204
REMARK   84  A    between atoms: _207  and  _209
REMARK   85  A    between atoms: _209  and  _210
REMARK   86  A    between atoms: _209  and  _212
REMARK   87  A    between atoms: _212  and  _213
REMARK   88  A    between atoms: _213  and  _214
REMARK   89  A    between atoms: _216  and  _218
REMARK   90  A    between atoms: _218  and  _219
REMARK   91  A    between atoms: _218  and  _221
REMARK   92  A    between atoms: _221  and  _222
REMARK   93  A    between atoms: _224  and  _226
REMARK   94  A    between atoms: _226  and  _227
REMARK   95  A    between atoms: _226  and  _229
REMARK   96  A    between atoms: _229  and  _230
REMARK   97  A    between atoms: _230  and  _231
REMARK   98  A    between atoms: _236  and  _238
REMARK   99  A    between atoms: _238  and  _239
REMARK  100  A    between atoms: _238  and  _241
REMARK  101  A    between atoms: _241  and  _242
REMARK  102  A    between atoms: _242  and  _243
REMARK  103  A    between atoms: _245  and  _247
REMARK  104  A    between atoms: _247  and  _248
REMARK  105  A    between atoms: _251  and  _253
REMARK  106  A    between atoms: _253  and  _254
REMARK  107  A    between atoms: _253  and  _256
REMARK  108  A    between atoms: _256  and  _257
REMARK  109  A    between atoms: _263  and  _265
REMARK  110  A    between atoms: _265  and  _266
REMARK  111  A    between atoms: _265  and  _268
REMARK  112  A    between atoms: _268  and  _269
REMARK  113  A    between atoms: _272  and  _274
REMARK  114  A    between atoms: _274  and  _275
REMARK  115  A    between atoms: _274  and  _277
REMARK  116  A    between atoms: _277  and  _278
REMARK  117  A    between atoms: _278  and  _279
REMARK  118  A    between atoms: _282  and  _284
REMARK  119  A    between atoms: _284  and  _285
REMARK  120  A    between atoms: _284  and  _287
REMARK  121  A    between atoms: _289  and  _291
REMARK  122  A    between atoms: _291  and  _292
REMARK  123  A    between atoms: _291  and  _294
REMARK  124  A    between atoms: _294  and  _295
REMARK  125  A    between atoms: _298  and  _300
REMARK  126  A    between atoms: _300  and  _301
REMARK  127  A    between atoms: _300  and  _303
REMARK  128  A    between atoms: _303  and  _304
REMARK  129  A    between atoms: _306  and  _308
REMARK  130  A    between atoms: _308  and  _309
REMARK  131  A    between atoms: _308  and  _311
REMARK  132  A    between atoms: _311  and  _312
REMARK  133  A    between atoms: _315  and  _317
REMARK  134  A    between atoms: _317  and  _318
REMARK  135  A    between atoms: _317  and  _320
REMARK  136  A    between atoms: _320  and  _321
REMARK  137  A    between atoms: _321  and  _322
REMARK  138  A    between atoms: _327  and  _329
REMARK  139  A    between atoms: _329  and  _330
REMARK  140  A    between atoms: _329  and  _332
REMARK  141  A    between atoms: _332  and  _333
REMARK  142  A    between atoms: _333  and  _334
REMARK  143  A    between atoms: _339  and  _341
REMARK  144  A    between atoms: _341  and  _342
REMARK  145  A    between atoms: _344  and  _346
REMARK  146  A    between atoms: _346  and  _347
REMARK  147  A    between atoms: _346  and  _349
REMARK  148  A    between atoms: _349  and  _350
REMARK  149  A    between atoms: _352  and  _354
REMARK  150  A    between atoms: _354  and  _355
REMARK  151  A    between atoms: _354  and  _357
REMARK  152  A    between atoms: _357  and  _358
REMARK  153  A    between atoms: _358  and  _359
REMARK  154  A    between atoms: _359  and  _360
REMARK  155  A    between atoms: _369  and  _371
REMARK  156  A    between atoms: _371  and  _372
REMARK  157  A    between atoms: _375  and  _377
REMARK  158  A    between atoms: _377  and  _378
REMARK  159  A    between atoms: _377  and  _380
REMARK  160  A    between atoms: _383  and  _385
REMARK  161  A    between atoms: _385  and  _386
REMARK  162  A    between atoms: _388  and  _390
REMARK  163  A    between atoms: _390  and  _391
REMARK  164  A    between atoms: _393  and  _395
REMARK  165  A    between atoms: _395  and  _396
REMARK  166  A    between atoms: _395  and  _398
REMARK  167  A    between atoms: _398  and  _399
REMARK  168  A    between atoms: _402  and  _404
REMARK  169  A    between atoms: _404  and  _405
REMARK  170  A    between atoms: _408  and  _410
REMARK  171  A    between atoms: _410  and  _411
REMARK  172  A    between atoms: _410  and  _413
REMARK  173  A    between atoms: _416  and  _418
REMARK  174  A    between atoms: _418  and  _419
REMARK  175  A    between atoms: _421  and  _423
REMARK  176  A    between atoms: _423  and  _424
REMARK  177  A    between atoms: _423  and  _426
REMARK  178  A    between atoms: _426  and  _427
REMARK  179  A    between atoms: _427  and  _428
REMARK  180  A    between atoms: _431  and  _433
REMARK  181  A    between atoms: _433  and  _434
REMARK  182  A    between atoms: _433  and  _436
REMARK  183  A    between atoms: _436  and  _437
REMARK  184  A    between atoms: _442  and  _443
REMARK  185  A    between atoms: _445  and  _447
REMARK  186  A    between atoms: _447  and  _448
REMARK  187  A    between atoms: _447  and  _450
REMARK  188  A    between atoms: _450  and  _451
REMARK  189  A    between atoms: _454  and  _456
REMARK  190  A    between atoms: _456  and  _457
REMARK  191  A    between atoms: _456  and  _459
REMARK  192  A    between atoms: _459  and  _460
REMARK  193  A    between atoms: _460  and  _461
REMARK  194  A    between atoms: _463  and  _465
REMARK  195  A    between atoms: _465  and  _466
REMARK  196  A    between atoms: _468  and  _470
REMARK  197  A    between atoms: _470  and  _471
REMARK  198  A    between atoms: _470  and  _473
REMARK  199  A    between atoms: _476  and  _478
REMARK  200  A    between atoms: _478  and  _479
REMARK  201  A    between atoms: _481  and  _483
REMARK  202  A    between atoms: _483  and  _484
REMARK  203  A    between atoms: _483  and  _486
REMARK  204  A    between atoms: _486  and  _487
REMARK  205  A    between atoms: _493  and  _495
REMARK  206  A    between atoms: _495  and  _496
REMARK  207  A    between atoms: _495  and  _498
REMARK  208  A    between atoms: _498  and  _499
REMARK  209  A    between atoms: _502  and  _504
REMARK  210  A    between atoms: _504  and  _505
REMARK  211  A    between atoms: _504  and  _507
REMARK  212  A    between atoms: _509  and  _511
REMARK  213  A    between atoms: _511  and  _512
REMARK  214  A    between atoms: _511  and  _514
REMARK  215  A    between atoms: _517  and  _519
REMARK  216  A    between atoms: _519  and  _520
REMARK  217  A    between atoms: _519  and  _522
REMARK  218  A    between atoms: _522  and  _523
REMARK  219  A    between atoms: _526  and  _528
REMARK  220  A    between atoms: _528  and  _529
REMARK  221  A    between atoms: _528  and  _531
REMARK  222  A    between atoms: _531  and  _532
REMARK  223  A    between atoms: _532  and  _533
REMARK  224  A    between atoms: _533  and  _534
REMARK                            x       y       z     vdW  Elec       q    Type
REMARK                         _______ _______ _______ _____ _____    ______ ____
ROOT
ATOM      1  C   ASP A   2       8.560  11.515  84.063  0.00  0.00    +0.241 C 
ATOM      2  O   ASP A   2       9.450  12.251  84.479  0.00  0.00    -0.273 OA
ATOM      3  N   CYS A   3       7.866  11.771  82.958  0.00  0.00    -0.296 N 
ATOM      4  H   CYS A   3       7.149  11.090  82.636  0.00  0.00    +0.150 HD
ENDROOT
BRANCH   1   5
ATOM      5  CA  ASP A   2       8.203  10.262  84.823  0.00  0.00    +0.160 C 
BRANCH   5   7
ATOM      6  C   PHE A   1       9.691   8.443  85.501  0.00  0.00    +0.239 C 
ATOM      7  N   ASP A   2       9.419   9.746  85.456  0.00  0.00    -0.297 N 
ATOM      8  H   ASP A   2      10.090  10.417  85.883  0.00  0.00    +0.150 HD
ATOM      9  O   PHE A   1       8.865   7.572  85.219  0.00  0.00    -0.274 OA
BRANCH   6  10
ATOM     10  CA  PHE A   1      11.119   8.062  85.856  0.00  0.00    +0.149 C 
BRANCH  10  11
ATOM     11  N   PHE A   1      11.137   6.802  86.594  0.00  0.00    -0.238 NA
ATOM     12  H   PHE A   1      10.455   6.067  86.317  0.00  0.00    +0.142 HD
ENDBRANCH  10  11
BRANCH  10  13
ATOM     13  CB  PHE A   1      11.867   7.891  84.532  0.00  0.00    +0.053 C 
BRANCH  13  14
ATOM     14  CG  PHE A   1      13.319   7.562  84.693  0.00  0.00    -0.020 A 
ATOM     15  CD2 PHE A   1      14.252   8.579  84.841  0.00  0.00    -0.004 A 
ATOM     16  CE2 PHE A   1      15.591   8.293  84.986  0.00  0.00    -0.000 A 
ATOM     17  CZ  PHE A   1      16.019   6.969  85.004  0.00  0.00    -0.000 A 
ATOM     18  CE1 PHE A   1      15.092   5.937  84.883  0.00  0.00    -0.000 A 
ATOM     19  CD1 PHE A   1      13.749   6.234  84.721  0.00  0.00    -0.004 A 
ENDBRANCH  13  14
ENDBRANCH  10  13
ENDBRANCH   6  10
ENDBRANCH   5   7
BRANCH   5  20
ATOM     20  CB  ASP A   2       7.125  10.635  85.846  0.00  0.00    +0.143 C 
BRANCH  20  21
ATOM     21  CG  ASP A   2       7.380  11.997  86.502  0.00  0.00    +0.367 C 
ATOM     22  OD2 ASP A   2       8.182  12.070  87.462  0.00  0.00    -0.246 OA
ATOM     23  OD1 ASP A   2       6.808  13.010  86.042  0.00  0.00    -0.246 OA
ENDBRANCH  20  21
ENDBRANCH   5  20
ENDBRANCH   1   5
BRANCH   3  24
ATOM     24  CA  CYS A   3       8.091  12.984  82.192  0.00  0.00    +0.160 C 
BRANCH  24  25
ATOM     25  C   CYS A   3       6.926  13.205  81.232  0.00  0.00    +0.242 C 
ATOM     26  N   VAL A   4       6.543  14.454  80.989  0.00  0.00    -0.297 N 
ATOM     27  H   VAL A   4       6.966  15.239  81.523  0.00  0.00    +0.150 HD
ATOM     28  O   CYS A   3       6.438  12.224  80.658  0.00  0.00    -0.273 OA
BRANCH  26  29
ATOM     29  CA  VAL A   4       5.533  14.726  79.977  0.00  0.00    +0.149 C 
BRANCH  29  30
ATOM     30  C   VAL A   4       6.105  14.799  78.569  0.00  0.00    +0.241 C 
ATOM     31  N   LEU A   5       7.424  14.734  78.427  0.00  0.00    -0.298 N 
ATOM     32  H   LEU A   5       8.025  14.567  79.259  0.00  0.00    +0.150 HD
ATOM     33  O   VAL A   4       5.355  14.902  77.619  0.00  0.00    -0.273 OA
BRANCH  31  34
ATOM     34  CA  LEU A   5       8.040  14.896  77.108  0.00  0.00    +0.137 C 
BRANCH  34  35
ATOM     35  C   LEU A   5       7.433  14.025  75.985  0.00  0.00    +0.227 C 
ATOM     36  O   LEU A   5       7.062  14.555  74.937  0.00  0.00    -0.286 OA
ENDBRANCH  34  35
BRANCH  34  37
ATOM     37  CB  LEU A   5       9.566  14.742  77.177  0.00  0.00    +0.028 C 
BRANCH  37  38
ATOM     38  CG  LEU A   5      10.372  15.060  75.915  0.00  0.00    +0.002 C 
ATOM     39  CD2 LEU A   5      11.834  14.693  76.109  0.00  0.00    +0.000 C 
ATOM     40  CD1 LEU A   5      10.234  16.530  75.515  0.00  0.00    +0.000 C 
ENDBRANCH  37  38
ENDBRANCH  34  37
ENDBRANCH  31  34
ENDBRANCH  29  30
BRANCH  29  41
ATOM     41  CB  VAL A   4       4.730  16.016  80.263  0.00  0.00    +0.027 C 
ATOM     42  CG2 VAL A   4       4.042  15.918  81.614  0.00  0.00    +0.002 C 
ATOM     43  CG1 VAL A   4       5.613  17.263  80.156  0.00  0.00    +0.002 C 
ENDBRANCH  29  41
ENDBRANCH  26  29
ENDBRANCH  24  25
BRANCH  24  44
ATOM     44  CB  CYS A   3       9.383  12.818  81.395  0.00  0.00    +0.098 C 
ATOM     45  SG  CYS A   3      10.008  14.334  80.711  0.00  0.00    -0.080 S 
ENDBRANCH  24  44
ENDBRANCH   3  24
TORSDOF 18
REMARK  Name = ../refined-set-2016/4lbu/4lbu_pocket.pdb
REMARK  224 active torsions:
REMARK  status: ('A' for Active; 'I' for Inactive)
REMARK    1  A    between atoms: _1  and  _3
REMARK    2  A    between atoms: _3  and  _4
REMARK    3  A    between atoms: _3  and  _6
REMARK    4  A    between atoms: _6  and  _7
REMARK    5  A    between atoms: _7  and  _8
REMARK    6  A    between atoms: _11  and  _12
REMARK    7  A    between atoms: _17  and  _19
REMARK    8  A    between atoms: _19  and  _20
REMARK    9  A    between atoms: _19  and  _22
REMARK   10  A    between atoms: _25  and  _27
REMARK   11  A    between atoms: _27  and  _28
REMARK   12  A    between atoms: _30  and  _32
REMARK   13  A    between atoms: _32  and  _33
REMARK   14  A    between atoms: _32  and  _35
REMARK   15  A    between atoms: _35  and  _36
REMARK   16  A    between atoms: _39  and  _41
REMARK   17  A    between atoms: _41  and  _42
REMARK   18  A    between atoms: _45  and  _47
REMARK   19  A    between atoms: _47  and  _48
REMARK   20  A    between atoms: _51  and  _53
REMARK   21  A    between atoms: _53  and  _54
REMARK   22  A    between atoms: _53  and  _56
REMARK   23  A    between atoms: _56  and  _57
REMARK   24  A    between atoms: _60  and  _62
REMARK   25  A    between atoms: _62  and  _63
REMARK   26  A    between atoms: _62  and  _65
REMARK   27  A    between atoms: _65  and  _66
REMARK   28  A    between atoms: _69  and  _71
REMARK   29  A    between atoms: _71  and  _72
REMARK   30  A    between atoms: _74  and  _76
REMARK   31  A    between atoms: _76  and  _77
REMARK   32  A    between atoms: _76  and  _79
REMARK   33  A    between atoms: _79  and  _80
REMARK   34  A    between atoms: _85  and  _87
REMARK   35  A    between atoms: _87  and  _88
REMARK   36  A    between atoms: _87  and  _90
REMARK   37  A    between atoms: _90  and  _91
REMARK   38  A    between atoms: _94  and  _96
REMARK   39  A    between atoms: _96  and  _97
REMARK   40  A    between atoms: _96  and  _99
REMARK   41  A    between atoms: _99  and  _100
REMARK   42  A    between atoms: _105  and  _106
REMARK   43  A    between atoms: _108  and  _110
REMARK   44  A    between atoms: _110  and  _111
REMARK   45  A    between atoms: _110  and  _113
REMARK   46  A    between atoms: _113  and  _114
REMARK   47  A    between atoms: _119  and  _121
REMARK   48  A    between atoms: _121  and  _122
REMARK   49  A    between atoms: _121  and  _124
REMARK   50  A    between atoms: _124  and  _125
REMARK   51  A    between atoms: _128  and  _130
REMARK   52  A    between atoms: _130  and  _131
REMARK   53  A    between atoms: _130  and  _133
REMARK   54  A    between atoms: _133  and  _134
REMARK   55  A    between atoms: _137  and  _139
REMARK   56  A    between atoms: _139  and  _140
REMARK   57  A    between atoms: _139  and  _142
REMARK   58  A    between atoms: _142  and  _143
REMARK   59  A    between atoms: _146  and  _148
REMARK   60  A    between atoms: _148  and  _149
REMARK   61  A    between atoms: _148  and  _151
REMARK   62  A    between atoms: _151  and  _152
REMARK   63  A    between atoms: _155  and  _157
REMARK   64  A    between atoms: _157  and  _158
REMARK   65  A    between atoms: _157  and  _160
REMARK   66  A    between atoms: _160  and  _161
REMARK   67  A    between atoms: _163  and  _165
REMARK   68  A    between atoms: _165  and  _166
REMARK   69  A    between atoms: _168  and  _170
REMARK   70  A    between atoms: _170  and  _171
REMARK   71  A    between atoms: _173  and  _175
REMARK   72  A    between atoms: _175  and  _176
REMARK   73  A    between atoms: _175  and  _178
REMARK   74  A    between atoms: _178  and  _179
REMARK   75  A    between atoms: _184  and  _185
REMARK   76  A    between atoms: _187  and  _189
REMARK   77  A    between atoms: _189  and  _190
REMARK   78  A    between atoms: _189  and  _192
REMARK   79  A    between atoms: _192  and  _193
REMARK   80  A    between atoms: _193  and  _194
REMARK   81  A    between atoms: _199  and  _201
REMARK   82  A    between atoms: _201  and  _202
REMARK   83  A    between atoms: _201  and  _204
REMARK   84  A    between atoms: _207  and  _209
REMARK   85  A    between atoms: _209  and  _210
REMARK   86  A    between atoms: _209  and  _212
REMARK   87  A    between atoms: _212  and  _213
REMARK   88  A    between atoms: _213  and  _214
REMARK   89  A    between atoms: _216  and  _218
REMARK   90  A    between atoms: _218  and  _219
REMARK   91  A    between atoms: _218  and  _221
REMARK   92  A    between atoms: _221  and  _222
REMARK   93  A    between atoms: _224  and  _226
REMARK   94  A    between atoms: _226  and  _227
REMARK   95  A    between atoms: _226  and  _229
REMARK   96  A    between atoms: _229  and  _230
REMARK   97  A    between atoms: _230  and  _231
REMARK   98  A    between atoms: _236  and  _238
REMARK   99  A    between atoms: _238  and  _239
REMARK  100  A    between atoms: _238  and  _241
REMARK  101  A    between atoms: _241  and  _242
REMARK  102  A    between atoms: _242  and  _243
REMARK  103  A    between atoms: _245  and  _247
REMARK  104  A    between atoms: _247  and  _248
REMARK  105  A    between atoms: _251  and  _253
REMARK  106  A    between atoms: _253  and  _254
REMARK  107  A    between atoms: _253  and  _256
REMARK  108  A    between atoms: _256  and  _257
REMARK  109  A    between atoms: _263  and  _265
REMARK  110  A    between atoms: _265  and  _266
REMARK  111  A    between atoms: _265  and  _268
REMARK  112  A    between atoms: _268  and  _269
REMARK  113  A    between atoms: _272  and  _274
REMARK  114  A    between atoms: _274  and  _275
REMARK  115  A    between atoms: _274  and  _277
REMARK  116  A    between atoms: _277  and  _278
REMARK  117  A    between atoms: _278  and  _279
REMARK  118  A    between atoms: _282  and  _284
REMARK  119  A    between atoms: _284  and  _285
REMARK  120  A    between atoms: _284  and  _287
REMARK  121  A    between atoms: _289  and  _291
REMARK  122  A    between atoms: _291  and  _292
REMARK  123  A    between atoms: _291  and  _294
REMARK  124  A    between atoms: _294  and  _295
REMARK  125  A    between atoms: _298  and  _300
REMARK  126  A    between atoms: _300  and  _301
REMARK  127  A    between atoms: _300  and  _303
REMARK  128  A    between atoms: _303  and  _304
REMARK  129  A    between atoms: _306  and  _308
REMARK  130  A    between atoms: _308  and  _309
REMARK  131  A    between atoms: _308  and  _311
REMARK  132  A    between atoms: _311  and  _312
REMARK  133  A    between atoms: _315  and  _317
REMARK  134  A    between atoms: _317  and  _318
REMARK  135  A    between atoms: _317  and  _320
REMARK  136  A    between atoms: _320  and  _321
REMARK  137  A    between atoms: _321  and  _322
REMARK  138  A    between atoms: _327  and  _329
REMARK  139  A    between atoms: _329  and  _330
REMARK  140  A    between atoms: _329  and  _332
REMARK  141  A    between atoms: _332  and  _333
REMARK  142  A    between atoms: _333  and  _334
REMARK  143  A    between atoms: _339  and  _341
REMARK  144  A    between atoms: _341  and  _342
REMARK  145  A    between atoms: _344  and  _346
REMARK  146  A    between atoms: _346  and  _347
REMARK  147  A    between atoms: _346  and  _349
REMARK  148  A    between atoms: _349  and  _350
REMARK  149  A    between atoms: _352  and  _354
REMARK  150  A    between atoms: _354  and  _355
REMARK  151  A    between atoms: _354  and  _357
REMARK  152  A    between atoms: _357  and  _358
REMARK  153  A    between atoms: _358  and  _359
REMARK  154  A    between atoms: _359  and  _360
REMARK  155  A    between atoms: _369  and  _371
REMARK  156  A    between atoms: _371  and  _372
REMARK  157  A    between atoms: _375  and  _377
REMARK  158  A    between atoms: _377  and  _378
REMARK  159  A    between atoms: _377  and  _380
REMARK  160  A    between atoms: _383  and  _385
REMARK  161  A    between atoms: _385  and  _386
REMARK  162  A    between atoms: _388  and  _390
REMARK  163  A    between atoms: _390  and  _391
REMARK  164  A    between atoms: _393  and  _395
REMARK  165  A    between atoms: _395  and  _396
REMARK  166  A    between atoms: _395  and  _398
REMARK  167  A    between atoms: _398  and  _399
REMARK  168  A    between atoms: _402  and  _404
REMARK  169  A    between atoms: _404  and  _405
REMARK  170  A    between atoms: _408  and  _410
REMARK  171  A    between atoms: _410  and  _411
REMARK  172  A    between atoms: _410  and  _413
REMARK  173  A    between atoms: _416  and  _418
REMARK  174  A    between atoms: _418  and  _419
REMARK  175  A    between atoms: _421  and  _423
REMARK  176  A    between atoms: _423  and  _424
REMARK  177  A    between atoms: _423  and  _426
REMARK  178  A    between atoms: _426  and  _427
REMARK  179  A    between atoms: _427  and  _428
REMARK  180  A    between atoms: _431  and  _433
REMARK  181  A    between atoms: _433  and  _434
REMARK  182  A    between atoms: _433  and  _436
REMARK  183  A    between atoms: _436  and  _437
REMARK  184  A    between atoms: _442  and  _443
REMARK  185  A    between atoms: _445  and  _447
REMARK  186  A    between atoms: _447  and  _448
REMARK  187  A    between atoms: _447  and  _450
REMARK  188  A    between atoms: _450  and  _451
REMARK  189  A    between atoms: _454  and  _456
REMARK  190  A    between atoms: _456  and  _457
REMARK  191  A    between atoms: _456  and  _459
REMARK  192  A    between atoms: _459  and  _460
REMARK  193  A    between atoms: _460  and  _461
REMARK  194  A    between atoms: _463  and  _465
REMARK  195  A    between atoms: _465  and  _466
REMARK  196  A    between atoms: _468  and  _470
REMARK  197  A    between atoms: _470  and  _471
REMARK  198  A    between atoms: _470  and  _473
REMARK  199  A    between atoms: _476  and  _478
REMARK  200  A    between atoms: _478  and  _479
REMARK  201  A    between atoms: _481  and  _483
REMARK  202  A    between atoms: _483  and  _484
REMARK  203  A    between atoms: _483  and  _486
REMARK  204  A    between atoms: _486  and  _487
REMARK  205  A    between atoms: _493  and  _495
REMARK  206  A    between atoms: _495  and  _496
REMARK  207  A    between atoms: _495  and  _498
REMARK  208  A    between atoms: _498  and  _499
REMARK  209  A    between atoms: _502  and  _504
REMARK  210  A    between atoms: _504  and  _505
REMARK  211  A    between atoms: _504  and  _507
REMARK  212  A    between atoms: _509  and  _511
REMARK  213  A    between atoms: _511  and  _512
REMARK  214  A    between atoms: _511  and  _514
REMARK  215  A    between atoms: _517  and  _519
REMARK  216  A    between atoms: _519  and  _520
REMARK  217  A    between atoms: _519  and  _522
REMARK  218  A    between atoms: _522  and  _523
REMARK  219  A    between atoms: _526  and  _528
REMARK  220  A    between atoms: _528  and  _529
REMARK  221  A    between atoms: _528  and  _531
REMARK  222  A    between atoms: _531  and  _532
REMARK  223  A    between atoms: _532  and  _533
REMARK  224  A    between atoms: _533  and  _534
REMARK                            x       y       z     vdW  Elec       q    Type
REMARK                         _______ _______ _______ _____ _____    ______ ____
ROOT
ATOM      1  NE  ARG A   1       5.091  19.926  77.644  0.00  0.00    -0.265 N 
ATOM      2  CZ  ARG A   1       5.511  20.526  78.752  0.00  0.00    +0.342 C 
ATOM      3  NH2 ARG A   1       4.651  21.192  79.511  0.00  0.00    -0.292 N 
ATOM      4 HH21 ARG A   1       4.979  21.662  80.379  0.00  0.00    +0.255 HD
ATOM      5 HH22 ARG A   1       3.649  21.244  79.238  0.00  0.00    +0.255 HD
ATOM      6  NH1 ARG A   1       6.787  20.456  79.105  0.00  0.00    -0.292 N 
ATOM      7 HH11 ARG A   1       7.113  20.927  79.973  0.00  0.00    +0.255 HD
ATOM      8 HH12 ARG A   1       7.462  19.930  78.514  0.00  0.00    +0.255 HD
ATOM      9  HE  ARG A   1       5.789  19.407  77.074  0.00  0.00    +0.259 HD
ENDROOT
BRANCH   1  10
ATOM     10  CD  ARG A   1       3.711  19.952  77.181  0.00  0.00    +0.174 C 
BRANCH  10  11
ATOM     11  CG  ARG A   1       3.517  19.077  75.967  0.00  0.00    +0.045 C 
BRANCH  11  12
ATOM     12  CB  ARG A   1       3.782  17.616  76.287  0.00  0.00    +0.029 C 
BRANCH  12  13
ATOM     13  CA  ARG A   1       3.330  16.671  75.173  0.00  0.00    +0.133 C 
BRANCH  13  14
ATOM     14  N   ARG A   1       3.472  15.282  75.581  0.00  0.00    -0.239 NA
ATOM     15  H   ARG A   1       3.949  15.057  76.478  0.00  0.00    +0.142 HD
ENDBRANCH  13  14
BRANCH  13  16
ATOM     16  C   ARG A   1       4.073  16.975  73.873  0.00  0.00    +0.224 C 
ATOM     17  O   ARG A   1       3.522  17.596  72.959  0.00  0.00    -0.287 OA
ENDBRANCH  13  16
ENDBRANCH  12  13
ENDBRANCH  11  12
ENDBRANCH  10  11
ENDBRANCH   1  10
TORSDOF 6
REMARK  Name = ../refined-set-2016/4lbu/4lbu_pocket.pdb
REMARK  224 active torsions:
REMARK  status: ('A' for Active; 'I' for Inactive)
REMARK    1  A    between atoms: _1  and  _3
REMARK    2  A    between atoms: _3  and  _4
REMARK    3  A    between atoms: _3  and  _6
REMARK    4  A    between atoms: _6  and  _7
REMARK    5  A    between atoms: _7  and  _8
REMARK    6  A    between atoms: _11  and  _12
REMARK    7  A    between atoms: _17  and  _19
REMARK    8  A    between atoms: _19  and  _20
REMARK    9  A    between atoms: _19  and  _22
REMARK   10  A    between atoms: _25  and  _27
REMARK   11  A    between atoms: _27  and  _28
REMARK   12  A    between atoms: _30  and  _32
REMARK   13  A    between atoms: _32  and  _33
REMARK   14  A    between atoms: _32  and  _35
REMARK   15  A    between atoms: _35  and  _36
REMARK   16  A    between atoms: _39  and  _41
REMARK   17  A    between atoms: _41  and  _42
REMARK   18  A    between atoms: _45  and  _47
REMARK   19  A    between atoms: _47  and  _48
REMARK   20  A    between atoms: _51  and  _53
REMARK   21  A    between atoms: _53  and  _54
REMARK   22  A    between atoms: _53  and  _56
REMARK   23  A    between atoms: _56  and  _57
REMARK   24  A    between atoms: _60  and  _62
REMARK   25  A    between atoms: _62  and  _63
REMARK   26  A    between atoms: _62  and  _65
REMARK   27  A    between atoms: _65  and  _66
REMARK   28  A    between atoms: _69  and  _71
REMARK   29  A    between atoms: _71  and  _72
REMARK   30  A    between atoms: _74  and  _76
REMARK   31  A    between atoms: _76  and  _77
REMARK   32  A    between atoms: _76  and  _79
REMARK   33  A    between atoms: _79  and  _80
REMARK   34  A    between atoms: _85  and  _87
REMARK   35  A    between atoms: _87  and  _88
REMARK   36  A    between atoms: _87  and  _90
REMARK   37  A    between atoms: _90  and  _91
REMARK   38  A    between atoms: _94  and  _96
REMARK   39  A    between atoms: _96  and  _97
REMARK   40  A    between atoms: _96  and  _99
REMARK   41  A    between atoms: _99  and  _100
REMARK   42  A    between atoms: _105  and  _106
REMARK   43  A    between atoms: _108  and  _110
REMARK   44  A    between atoms: _110  and  _111
REMARK   45  A    between atoms: _110  and  _113
REMARK   46  A    between atoms: _113  and  _114
REMARK   47  A    between atoms: _119  and  _121
REMARK   48  A    between atoms: _121  and  _122
REMARK   49  A    between atoms: _121  and  _124
REMARK   50  A    between atoms: _124  and  _125
REMARK   51  A    between atoms: _128  and  _130
REMARK   52  A    between atoms: _130  and  _131
REMARK   53  A    between atoms: _130  and  _133
REMARK   54  A    between atoms: _133  and  _134
REMARK   55  A    between atoms: _137  and  _139
REMARK   56  A    between atoms: _139  and  _140
REMARK   57  A    between atoms: _139  and  _142
REMARK   58  A    between atoms: _142  and  _143
REMARK   59  A    between atoms: _146  and  _148
REMARK   60  A    between atoms: _148  and  _149
REMARK   61  A    between atoms: _148  and  _151
REMARK   62  A    between atoms: _151  and  _152
REMARK   63  A    between atoms: _155  and  _157
REMARK   64  A    between atoms: _157  and  _158
REMARK   65  A    between atoms: _157  and  _160
REMARK   66  A    between atoms: _160  and  _161
REMARK   67  A    between atoms: _163  and  _165
REMARK   68  A    between atoms: _165  and  _166
REMARK   69  A    between atoms: _168  and  _170
REMARK   70  A    between atoms: _170  and  _171
REMARK   71  A    between atoms: _173  and  _175
REMARK   72  A    between atoms: _175  and  _176
REMARK   73  A    between atoms: _175  and  _178
REMARK   74  A    between atoms: _178  and  _179
REMARK   75  A    between atoms: _184  and  _185
REMARK   76  A    between atoms: _187  and  _189
REMARK   77  A    between atoms: _189  and  _190
REMARK   78  A    between atoms: _189  and  _192
REMARK   79  A    between atoms: _192  and  _193
REMARK   80  A    between atoms: _193  and  _194
REMARK   81  A    between atoms: _199  and  _201
REMARK   82  A    between atoms: _201  and  _202
REMARK   83  A    between atoms: _201  and  _204
REMARK   84  A    between atoms: _207  and  _209
REMARK   85  A    between atoms: _209  and  _210
REMARK   86  A    between atoms: _209  and  _212
REMARK   87  A    between atoms: _212  and  _213
REMARK   88  A    between atoms: _213  and  _214
REMARK   89  A    between atoms: _216  and  _218
REMARK   90  A    between atoms: _218  and  _219
REMARK   91  A    between atoms: _218  and  _221
REMARK   92  A    between atoms: _221  and  _222
REMARK   93  A    between atoms: _224  and  _226
REMARK   94  A    between atoms: _226  and  _227
REMARK   95  A    between atoms: _226  and  _229
REMARK   96  A    between atoms: _229  and  _230
REMARK   97  A    between atoms: _230  and  _231
REMARK   98  A    between atoms: _236  and  _238
REMARK   99  A    between atoms: _238  and  _239
REMARK  100  A    between atoms: _238  and  _241
REMARK  101  A    between atoms: _241  and  _242
REMARK  102  A    between atoms: _242  and  _243
REMARK  103  A    between atoms: _245  and  _247
REMARK  104  A    between atoms: _247  and  _248
REMARK  105  A    between atoms: _251  and  _253
REMARK  106  A    between atoms: _253  and  _254
REMARK  107  A    between atoms: _253  and  _256
REMARK  108  A    between atoms: _256  and  _257
REMARK  109  A    between atoms: _263  and  _265
REMARK  110  A    between atoms: _265  and  _266
REMARK  111  A    between atoms: _265  and  _268
REMARK  112  A    between atoms: _268  and  _269
REMARK  113  A    between atoms: _272  and  _274
REMARK  114  A    between atoms: _274  and  _275
REMARK  115  A    between atoms: _274  and  _277
REMARK  116  A    between atoms: _277  and  _278
REMARK  117  A    between atoms: _278  and  _279
REMARK  118  A    between atoms: _282  and  _284
REMARK  119  A    between atoms: _284  and  _285
REMARK  120  A    between atoms: _284  and  _287
REMARK  121  A    between atoms: _289  and  _291
REMARK  122  A    between atoms: _291  and  _292
REMARK  123  A    between atoms: _291  and  _294
REMARK  124  A    between atoms: _294  and  _295
REMARK  125  A    between atoms: _298  and  _300
REMARK  126  A    between atoms: _300  and  _301
REMARK  127  A    between atoms: _300  and  _303
REMARK  128  A    between atoms: _303  and  _304
REMARK  129  A    between atoms: _306  and  _308
REMARK  130  A    between atoms: _308  and  _309
REMARK  131  A    between atoms: _308  and  _311
REMARK  132  A    between atoms: _311  and  _312
REMARK  133  A    between atoms: _315  and  _317
REMARK  134  A    between atoms: _317  and  _318
REMARK  135  A    between atoms: _317  and  _320
REMARK  136  A    between atoms: _320  and  _321
REMARK  137  A    between atoms: _321  and  _322
REMARK  138  A    between atoms: _327  and  _329
REMARK  139  A    between atoms: _329  and  _330
REMARK  140  A    between atoms: _329  and  _332
REMARK  141  A    between atoms: _332  and  _333
REMARK  142  A    between atoms: _333  and  _334
REMARK  143  A    between atoms: _339  and  _341
REMARK  144  A    between atoms: _341  and  _342
REMARK  145  A    between atoms: _344  and  _346
REMARK  146  A    between atoms: _346  and  _347
REMARK  147  A    between atoms: _346  and  _349
REMARK  148  A    between atoms: _349  and  _350
REMARK  149  A    between atoms: _352  and  _354
REMARK  150  A    between atoms: _354  and  _355
REMARK  151  A    between atoms: _354  and  _357
REMARK  152  A    between atoms: _357  and  _358
REMARK  153  A    between atoms: _358  and  _359
REMARK  154  A    between atoms: _359  and  _360
REMARK  155  A    between atoms: _369  and  _371
REMARK  156  A    between atoms: _371  and  _372
REMARK  157  A    between atoms: _375  and  _377
REMARK  158  A    between atoms: _377  and  _378
REMARK  159  A    between atoms: _377  and  _380
REMARK  160  A    between atoms: _383  and  _385
REMARK  161  A    between atoms: _385  and  _386
REMARK  162  A    between atoms: _388  and  _390
REMARK  163  A    between atoms: _390  and  _391
REMARK  164  A    between atoms: _393  and  _395
REMARK  165  A    between atoms: _395  and  _396
REMARK  166  A    between atoms: _395  and  _398
REMARK  167  A    between atoms: _398  and  _399
REMARK  168  A    between atoms: _402  and  _404
REMARK  169  A    between atoms: _404  and  _405
REMARK  170  A    between atoms: _408  and  _410
REMARK  171  A    between atoms: _410  and  _411
REMARK  172  A    between atoms: _410  and  _413
REMARK  173  A    between atoms: _416  and  _418
REMARK  174  A    between atoms: _418  and  _419
REMARK  175  A    between atoms: _421  and  _423
REMARK  176  A    between atoms: _423  and  _424
REMARK  177  A    between atoms: _423  and  _426
REMARK  178  A    between atoms: _426  and  _427
REMARK  179  A    between atoms: _427  and  _428
REMARK  180  A    between atoms: _431  and  _433
REMARK  181  A    between atoms: _433  and  _434
REMARK  182  A    between atoms: _433  and  _436
REMARK  183  A    between atoms: _436  and  _437
REMARK  184  A    between atoms: _442  and  _443
REMARK  185  A    between atoms: _445  and  _447
REMARK  186  A    between atoms: _447  and  _448
REMARK  187  A    between atoms: _447  and  _450
REMARK  188  A    between atoms: _450  and  _451
REMARK  189  A    between atoms: _454  and  _456
REMARK  190  A    between atoms: _456  and  _457
REMARK  191  A    between atoms: _456  and  _459
REMARK  192  A    between atoms: _459  and  _460
REMARK  193  A    between atoms: _460  and  _461
REMARK  194  A    between atoms: _463  and  _465
REMARK  195  A    between atoms: _465  and  _466
REMARK  196  A    between atoms: _468  and  _470
REMARK  197  A    between atoms: _470  and  _471
REMARK  198  A    between atoms: _470  and  _473
REMARK  199  A    between atoms: _476  and  _478
REMARK  200  A    between atoms: _478  and  _479
REMARK  201  A    between atoms: _481  and  _483
REMARK  202  A    between atoms: _483  and  _484
REMARK  203  A    between atoms: _483  and  _486
REMARK  204  A    between atoms: _486  and  _487
REMARK  205  A    between atoms: _493  and  _495
REMARK  206  A    between atoms: _495  and  _496
REMARK  207  A    between atoms: _495  and  _498
REMARK  208  A    between atoms: _498  and  _499
REMARK  209  A    between atoms: _502  and  _504
REMARK  210  A    between atoms: _504  and  _505
REMARK  211  A    between atoms: _504  and  _507
REMARK  212  A    between atoms: _509  and  _511
REMARK  213  A    between atoms: _511  and  _512
REMARK  214  A    between atoms: _511  and  _514
REMARK  215  A    between atoms: _517  and  _519
REMARK  216  A    between atoms: _519  and  _520
REMARK  217  A    between atoms: _519  and  _522
REMARK  218  A    between atoms: _522  and  _523
REMARK  219  A    between atoms: _526  and  _528
REMARK  220  A    between atoms: _528  and  _529
REMARK  221  A    between atoms: _528  and  _531
REMARK  222  A    between atoms: _531  and  _532
REMARK  223  A    between atoms: _532  and  _533
REMARK  224  A    between atoms: _533  and  _534
REMARK                            x       y       z     vdW  Elec       q    Type
REMARK                         _______ _______ _______ _____ _____    ______ ____
ROOT
ATOM      1  O   HOH     1      13.756  15.921  90.395  0.00  0.00    +0.000 OA
ENDROOT
TORSDOF 0
REMARK  Name = ../refined-set-2016/4lbu/4lbu_pocket.pdb
REMARK  224 active torsions:
REMARK  status: ('A' for Active; 'I' for Inactive)
REMARK    1  A    between atoms: _1  and  _3
REMARK    2  A    between atoms: _3  and  _4
REMARK    3  A    between atoms: _3  and  _6
REMARK    4  A    between atoms: _6  and  _7
REMARK    5  A    between atoms: _7  and  _8
REMARK    6  A    between atoms: _11  and  _12
REMARK    7  A    between atoms: _17  and  _19
REMARK    8  A    between atoms: _19  and  _20
REMARK    9  A    between atoms: _19  and  _22
REMARK   10  A    between atoms: _25  and  _27
REMARK   11  A    between atoms: _27  and  _28
REMARK   12  A    between atoms: _30  and  _32
REMARK   13  A    between atoms: _32  and  _33
REMARK   14  A    between atoms: _32  and  _35
REMARK   15  A    between atoms: _35  and  _36
REMARK   16  A    between atoms: _39  and  _41
REMARK   17  A    between atoms: _41  and  _42
REMARK   18  A    between atoms: _45  and  _47
REMARK   19  A    between atoms: _47  and  _48
REMARK   20  A    between atoms: _51  and  _53
REMARK   21  A    between atoms: _53  and  _54
REMARK   22  A    between atoms: _53  and  _56
REMARK   23  A    between atoms: _56  and  _57
REMARK   24  A    between atoms: _60  and  _62
REMARK   25  A    between atoms: _62  and  _63
REMARK   26  A    between atoms: _62  and  _65
REMARK   27  A    between atoms: _65  and  _66
REMARK   28  A    between atoms: _69  and  _71
REMARK   29  A    between atoms: _71  and  _72
REMARK   30  A    between atoms: _74  and  _76
REMARK   31  A    between atoms: _76  and  _77
REMARK   32  A    between atoms: _76  and  _79
REMARK   33  A    between atoms: _79  and  _80
REMARK   34  A    between atoms: _85  and  _87
REMARK   35  A    between atoms: _87  and  _88
REMARK   36  A    between atoms: _87  and  _90
REMARK   37  A    between atoms: _90  and  _91
REMARK   38  A    between atoms: _94  and  _96
REMARK   39  A    between atoms: _96  and  _97
REMARK   40  A    between atoms: _96  and  _99
REMARK   41  A    between atoms: _99  and  _100
REMARK   42  A    between atoms: _105  and  _106
REMARK   43  A    between atoms: _108  and  _110
REMARK   44  A    between atoms: _110  and  _111
REMARK   45  A    between atoms: _110  and  _113
REMARK   46  A    between atoms: _113  and  _114
REMARK   47  A    between atoms: _119  and  _121
REMARK   48  A    between atoms: _121  and  _122
REMARK   49  A    between atoms: _121  and  _124
REMARK   50  A    between atoms: _124  and  _125
REMARK   51  A    between atoms: _128  and  _130
REMARK   52  A    between atoms: _130  and  _131
REMARK   53  A    between atoms: _130  and  _133
REMARK   54  A    between atoms: _133  and  _134
REMARK   55  A    between atoms: _137  and  _139
REMARK   56  A    between atoms: _139  and  _140
REMARK   57  A    between atoms: _139  and  _142
REMARK   58  A    between atoms: _142  and  _143
REMARK   59  A    between atoms: _146  and  _148
REMARK   60  A    between atoms: _148  and  _149
REMARK   61  A    between atoms: _148  and  _151
REMARK   62  A    between atoms: _151  and  _152
REMARK   63  A    between atoms: _155  and  _157
REMARK   64  A    between atoms: _157  and  _158
REMARK   65  A    between atoms: _157  and  _160
REMARK   66  A    between atoms: _160  and  _161
REMARK   67  A    between atoms: _163  and  _165
REMARK   68  A    between atoms: _165  and  _166
REMARK   69  A    between atoms: _168  and  _170
REMARK   70  A    between atoms: _170  and  _171
REMARK   71  A    between atoms: _173  and  _175
REMARK   72  A    between atoms: _175  and  _176
REMARK   73  A    between atoms: _175  and  _178
REMARK   74  A    between atoms: _178  and  _179
REMARK   75  A    between atoms: _184  and  _185
REMARK   76  A    between atoms: _187  and  _189
REMARK   77  A    between atoms: _189  and  _190
REMARK   78  A    between atoms: _189  and  _192
REMARK   79  A    between atoms: _192  and  _193
REMARK   80  A    between atoms: _193  and  _194
REMARK   81  A    between atoms: _199  and  _201
REMARK   82  A    between atoms: _201  and  _202
REMARK   83  A    between atoms: _201  and  _204
REMARK   84  A    between atoms: _207  and  _209
REMARK   85  A    between atoms: _209  and  _210
REMARK   86  A    between atoms: _209  and  _212
REMARK   87  A    between atoms: _212  and  _213
REMARK   88  A    between atoms: _213  and  _214
REMARK   89  A    between atoms: _216  and  _218
REMARK   90  A    between atoms: _218  and  _219
REMARK   91  A    between atoms: _218  and  _221
REMARK   92  A    between atoms: _221  and  _222
REMARK   93  A    between atoms: _224  and  _226
REMARK   94  A    between atoms: _226  and  _227
REMARK   95  A    between atoms: _226  and  _229
REMARK   96  A    between atoms: _229  and  _230
REMARK   97  A    between atoms: _230  and  _231
REMARK   98  A    between atoms: _236  and  _238
REMARK   99  A    between atoms: _238  and  _239
REMARK  100  A    between atoms: _238  and  _241
REMARK  101  A    between atoms: _241  and  _242
REMARK  102  A    between atoms: _242  and  _243
REMARK  103  A    between atoms: _245  and  _247
REMARK  104  A    between atoms: _247  and  _248
REMARK  105  A    between atoms: _251  and  _253
REMARK  106  A    between atoms: _253  and  _254
REMARK  107  A    between atoms: _253  and  _256
REMARK  108  A    between atoms: _256  and  _257
REMARK  109  A    between atoms: _263  and  _265
REMARK  110  A    between atoms: _265  and  _266
REMARK  111  A    between atoms: _265  and  _268
REMARK  112  A    between atoms: _268  and  _269
REMARK  113  A    between atoms: _272  and  _274
REMARK  114  A    between atoms: _274  and  _275
REMARK  115  A    between atoms: _274  and  _277
REMARK  116  A    between atoms: _277  and  _278
REMARK  117  A    between atoms: _278  and  _279
REMARK  118  A    between atoms: _282  and  _284
REMARK  119  A    between atoms: _284  and  _285
REMARK  120  A    between atoms: _284  and  _287
REMARK  121  A    between atoms: _289  and  _291
REMARK  122  A    between atoms: _291  and  _292
REMARK  123  A    between atoms: _291  and  _294
REMARK  124  A    between atoms: _294  and  _295
REMARK  125  A    between atoms: _298  and  _300
REMARK  126  A    between atoms: _300  and  _301
REMARK  127  A    between atoms: _300  and  _303
REMARK  128  A    between atoms: _303  and  _304
REMARK  129  A    between atoms: _306  and  _308
REMARK  130  A    between atoms: _308  and  _309
REMARK  131  A    between atoms: _308  and  _311
REMARK  132  A    between atoms: _311  and  _312
REMARK  133  A    between atoms: _315  and  _317
REMARK  134  A    between atoms: _317  and  _318
REMARK  135  A    between atoms: _317  and  _320
REMARK  136  A    between atoms: _320  and  _321
REMARK  137  A    between atoms: _321  and  _322
REMARK  138  A    between atoms: _327  and  _329
REMARK  139  A    between atoms: _329  and  _330
REMARK  140  A    between atoms: _329  and  _332
REMARK  141  A    between atoms: _332  and  _333
REMARK  142  A    between atoms: _333  and  _334
REMARK  143  A    between atoms: _339  and  _341
REMARK  144  A    between atoms: _341  and  _342
REMARK  145  A    between atoms: _344  and  _346
REMARK  146  A    between atoms: _346  and  _347
REMARK  147  A    between atoms: _346  and  _349
REMARK  148  A    between atoms: _349  and  _350
REMARK  149  A    between atoms: _352  and  _354
REMARK  150  A    between atoms: _354  and  _355
REMARK  151  A    between atoms: _354  and  _357
REMARK  152  A    between atoms: _357  and  _358
REMARK  153  A    between atoms: _358  and  _359
REMARK  154  A    between atoms: _359  and  _360
REMARK  155  A    between atoms: _369  and  _371
REMARK  156  A    between atoms: _371  and  _372
REMARK  157  A    between atoms: _375  and  _377
REMARK  158  A    between atoms: _377  and  _378
REMARK  159  A    between atoms: _377  and  _380
REMARK  160  A    between atoms: _383  and  _385
REMARK  161  A    between atoms: _385  and  _386
REMARK  162  A    between atoms: _388  and  _390
REMARK  163  A    between atoms: _390  and  _391
REMARK  164  A    between atoms: _393  and  _395
REMARK  165  A    between atoms: _395  and  _396
REMARK  166  A    between atoms: _395  and  _398
REMARK  167  A    between atoms: _398  and  _399
REMARK  168  A    between atoms: _402  and  _404
REMARK  169  A    between atoms: _404  and  _405
REMARK  170  A    between atoms: _408  and  _410
REMARK  171  A    between atoms: _410  and  _411
REMARK  172  A    between atoms: _410  and  _413
REMARK  173  A    between atoms: _416  and  _418
REMARK  174  A    between atoms: _418  and  _419
REMARK  175  A    between atoms: _421  and  _423
REMARK  176  A    between atoms: _423  and  _424
REMARK  177  A    between atoms: _423  and  _426
REMARK  178  A    between atoms: _426  and  _427
REMARK  179  A    between atoms: _427  and  _428
REMARK  180  A    between atoms: _431  and  _433
REMARK  181  A    between atoms: _433  and  _434
REMARK  182  A    between atoms: _433  and  _436
REMARK  183  A    between atoms: _436  and  _437
REMARK  184  A    between atoms: _442  and  _443
REMARK  185  A    between atoms: _445  and  _447
REMARK  186  A    between atoms: _447  and  _448
REMARK  187  A    between atoms: _447  and  _450
REMARK  188  A    between atoms: _450  and  _451
REMARK  189  A    between atoms: _454  and  _456
REMARK  190  A    between atoms: _456  and  _457
REMARK  191  A    between atoms: _456  and  _459
REMARK  192  A    between atoms: _459  and  _460
REMARK  193  A    between atoms: _460  and  _461
REMARK  194  A    between atoms: _463  and  _465
REMARK  195  A    between atoms: _465  and  _466
REMARK  196  A    between atoms: _468  and  _470
REMARK  197  A    between atoms: _470  and  _471
REMARK  198  A    between atoms: _470  and  _473
REMARK  199  A    between atoms: _476  and  _478
REMARK  200  A    between atoms: _478  and  _479
REMARK  201  A    between atoms: _481  and  _483
REMARK  202  A    between atoms: _483  and  _484
REMARK  203  A    between atoms: _483  and  _486
REMARK  204  A    between atoms: _486  and  _487
REMARK  205  A    between atoms: _493  and  _495
REMARK  206  A    between atoms: _495  and  _496
REMARK  207  A    between atoms: _495  and  _498
REMARK  208  A    between atoms: _498  and  _499
REMARK  209  A    between atoms: _502  and  _504
REMARK  210  A    between atoms: _504  and  _505
REMARK  211  A    between atoms: _504  and  _507
REMARK  212  A    between atoms: _509  and  _511
REMARK  213  A    between atoms: _511  and  _512
REMARK  214  A    between atoms: _511  and  _514
REMARK  215  A    between atoms: _517  and  _519
REMARK  216  A    between atoms: _519  and  _520
REMARK  217  A    between atoms: _519  and  _522
REMARK  218  A    between atoms: _522  and  _523
REMARK  219  A    between atoms: _526  and  _528
REMARK  220  A    between atoms: _528  and  _529
REMARK  221  A    between atoms: _528  and  _531
REMARK  222  A    between atoms: _531  and  _532
REMARK  223  A    between atoms: _532  and  _533
REMARK  224  A    between atoms: _533  and  _534
REMARK                            x       y       z     vdW  Elec       q    Type
REMARK                         _______ _______ _______ _____ _____    ______ ____
ROOT
ATOM      1  O   HOH     1       3.551  18.076  92.576  0.00  0.00    +0.000 OA
ENDROOT
TORSDOF 0
REMARK  Name = ../refined-set-2016/4lbu/4lbu_pocket.pdb
REMARK  224 active torsions:
REMARK  status: ('A' for Active; 'I' for Inactive)
REMARK    1  A    between atoms: _1  and  _3
REMARK    2  A    between atoms: _3  and  _4
REMARK    3  A    between atoms: _3  and  _6
REMARK    4  A    between atoms: _6  and  _7
REMARK    5  A    between atoms: _7  and  _8
REMARK    6  A    between atoms: _11  and  _12
REMARK    7  A    between atoms: _17  and  _19
REMARK    8  A    between atoms: _19  and  _20
REMARK    9  A    between atoms: _19  and  _22
REMARK   10  A    between atoms: _25  and  _27
REMARK   11  A    between atoms: _27  and  _28
REMARK   12  A    between atoms: _30  and  _32
REMARK   13  A    between atoms: _32  and  _33
REMARK   14  A    between atoms: _32  and  _35
REMARK   15  A    between atoms: _35  and  _36
REMARK   16  A    between atoms: _39  and  _41
REMARK   17  A    between atoms: _41  and  _42
REMARK   18  A    between atoms: _45  and  _47
REMARK   19  A    between atoms: _47  and  _48
REMARK   20  A    between atoms: _51  and  _53
REMARK   21  A    between atoms: _53  and  _54
REMARK   22  A    between atoms: _53  and  _56
REMARK   23  A    between atoms: _56  and  _57
REMARK   24  A    between atoms: _60  and  _62
REMARK   25  A    between atoms: _62  and  _63
REMARK   26  A    between atoms: _62  and  _65
REMARK   27  A    between atoms: _65  and  _66
REMARK   28  A    between atoms: _69  and  _71
REMARK   29  A    between atoms: _71  and  _72
REMARK   30  A    between atoms: _74  and  _76
REMARK   31  A    between atoms: _76  and  _77
REMARK   32  A    between atoms: _76  and  _79
REMARK   33  A    between atoms: _79  and  _80
REMARK   34  A    between atoms: _85  and  _87
REMARK   35  A    between atoms: _87  and  _88
REMARK   36  A    between atoms: _87  and  _90
REMARK   37  A    between atoms: _90  and  _91
REMARK   38  A    between atoms: _94  and  _96
REMARK   39  A    between atoms: _96  and  _97
REMARK   40  A    between atoms: _96  and  _99
REMARK   41  A    between atoms: _99  and  _100
REMARK   42  A    between atoms: _105  and  _106
REMARK   43  A    between atoms: _108  and  _110
REMARK   44  A    between atoms: _110  and  _111
REMARK   45  A    between atoms: _110  and  _113
REMARK   46  A    between atoms: _113  and  _114
REMARK   47  A    between atoms: _119  and  _121
REMARK   48  A    between atoms: _121  and  _122
REMARK   49  A    between atoms: _121  and  _124
REMARK   50  A    between atoms: _124  and  _125
REMARK   51  A    between atoms: _128  and  _130
REMARK   52  A    between atoms: _130  and  _131
REMARK   53  A    between atoms: _130  and  _133
REMARK   54  A    between atoms: _133  and  _134
REMARK   55  A    between atoms: _137  and  _139
REMARK   56  A    between atoms: _139  and  _140
REMARK   57  A    between atoms: _139  and  _142
REMARK   58  A    between atoms: _142  and  _143
REMARK   59  A    between atoms: _146  and  _148
REMARK   60  A    between atoms: _148  and  _149
REMARK   61  A    between atoms: _148  and  _151
REMARK   62  A    between atoms: _151  and  _152
REMARK   63  A    between atoms: _155  and  _157
REMARK   64  A    between atoms: _157  and  _158
REMARK   65  A    between atoms: _157  and  _160
REMARK   66  A    between atoms: _160  and  _161
REMARK   67  A    between atoms: _163  and  _165
REMARK   68  A    between atoms: _165  and  _166
REMARK   69  A    between atoms: _168  and  _170
REMARK   70  A    between atoms: _170  and  _171
REMARK   71  A    between atoms: _173  and  _175
REMARK   72  A    between atoms: _175  and  _176
REMARK   73  A    between atoms: _175  and  _178
REMARK   74  A    between atoms: _178  and  _179
REMARK   75  A    between atoms: _184  and  _185
REMARK   76  A    between atoms: _187  and  _189
REMARK   77  A    between atoms: _189  and  _190
REMARK   78  A    between atoms: _189  and  _192
REMARK   79  A    between atoms: _192  and  _193
REMARK   80  A    between atoms: _193  and  _194
REMARK   81  A    between atoms: _199  and  _201
REMARK   82  A    between atoms: _201  and  _202
REMARK   83  A    between atoms: _201  and  _204
REMARK   84  A    between atoms: _207  and  _209
REMARK   85  A    between atoms: _209  and  _210
REMARK   86  A    between atoms: _209  and  _212
REMARK   87  A    between atoms: _212  and  _213
REMARK   88  A    between atoms: _213  and  _214
REMARK   89  A    between atoms: _216  and  _218
REMARK   90  A    between atoms: _218  and  _219
REMARK   91  A    between atoms: _218  and  _221
REMARK   92  A    between atoms: _221  and  _222
REMARK   93  A    between atoms: _224  and  _226
REMARK   94  A    between atoms: _226  and  _227
REMARK   95  A    between atoms: _226  and  _229
REMARK   96  A    between atoms: _229  and  _230
REMARK   97  A    between atoms: _230  and  _231
REMARK   98  A    between atoms: _236  and  _238
REMARK   99  A    between atoms: _238  and  _239
REMARK  100  A    between atoms: _238  and  _241
REMARK  101  A    between atoms: _241  and  _242
REMARK  102  A    between atoms: _242  and  _243
REMARK  103  A    between atoms: _245  and  _247
REMARK  104  A    between atoms: _247  and  _248
REMARK  105  A    between atoms: _251  and  _253
REMARK  106  A    between atoms: _253  and  _254
REMARK  107  A    between atoms: _253  and  _256
REMARK  108  A    between atoms: _256  and  _257
REMARK  109  A    between atoms: _263  and  _265
REMARK  110  A    between atoms: _265  and  _266
REMARK  111  A    between atoms: _265  and  _268
REMARK  112  A    between atoms: _268  and  _269
REMARK  113  A    between atoms: _272  and  _274
REMARK  114  A    between atoms: _274  and  _275
REMARK  115  A    between atoms: _274  and  _277
REMARK  116  A    between atoms: _277  and  _278
REMARK  117  A    between atoms: _278  and  _279
REMARK  118  A    between atoms: _282  and  _284
REMARK  119  A    between atoms: _284  and  _285
REMARK  120  A    between atoms: _284  and  _287
REMARK  121  A    between atoms: _289  and  _291
REMARK  122  A    between atoms: _291  and  _292
REMARK  123  A    between atoms: _291  and  _294
REMARK  124  A    between atoms: _294  and  _295
REMARK  125  A    between atoms: _298  and  _300
REMARK  126  A    between atoms: _300  and  _301
REMARK  127  A    between atoms: _300  and  _303
REMARK  128  A    between atoms: _303  and  _304
REMARK  129  A    between atoms: _306  and  _308
REMARK  130  A    between atoms: _308  and  _309
REMARK  131  A    between atoms: _308  and  _311
REMARK  132  A    between atoms: _311  and  _312
REMARK  133  A    between atoms: _315  and  _317
REMARK  134  A    between atoms: _317  and  _318
REMARK  135  A    between atoms: _317  and  _320
REMARK  136  A    between atoms: _320  and  _321
REMARK  137  A    between atoms: _321  and  _322
REMARK  138  A    between atoms: _327  and  _329
REMARK  139  A    between atoms: _329  and  _330
REMARK  140  A    between atoms: _329  and  _332
REMARK  141  A    between atoms: _332  and  _333
REMARK  142  A    between atoms: _333  and  _334
REMARK  143  A    between atoms: _339  and  _341
REMARK  144  A    between atoms: _341  and  _342
REMARK  145  A    between atoms: _344  and  _346
REMARK  146  A    between atoms: _346  and  _347
REMARK  147  A    between atoms: _346  and  _349
REMARK  148  A    between atoms: _349  and  _350
REMARK  149  A    between atoms: _352  and  _354
REMARK  150  A    between atoms: _354  and  _355
REMARK  151  A    between atoms: _354  and  _357
REMARK  152  A    between atoms: _357  and  _358
REMARK  153  A    between atoms: _358  and  _359
REMARK  154  A    between atoms: _359  and  _360
REMARK  155  A    between atoms: _369  and  _371
REMARK  156  A    between atoms: _371  and  _372
REMARK  157  A    between atoms: _375  and  _377
REMARK  158  A    between atoms: _377  and  _378
REMARK  159  A    between atoms: _377  and  _380
REMARK  160  A    between atoms: _383  and  _385
REMARK  161  A    between atoms: _385  and  _386
REMARK  162  A    between atoms: _388  and  _390
REMARK  163  A    between atoms: _390  and  _391
REMARK  164  A    between atoms: _393  and  _395
REMARK  165  A    between atoms: _395  and  _396
REMARK  166  A    between atoms: _395  and  _398
REMARK  167  A    between atoms: _398  and  _399
REMARK  168  A    between atoms: _402  and  _404
REMARK  169  A    between atoms: _404  and  _405
REMARK  170  A    between atoms: _408  and  _410
REMARK  171  A    between atoms: _410  and  _411
REMARK  172  A    between atoms: _410  and  _413
REMARK  173  A    between atoms: _416  and  _418
REMARK  174  A    between atoms: _418  and  _419
REMARK  175  A    between atoms: _421  and  _423
REMARK  176  A    between atoms: _423  and  _424
REMARK  177  A    between atoms: _423  and  _426
REMARK  178  A    between atoms: _426  and  _427
REMARK  179  A    between atoms: _427  and  _428
REMARK  180  A    between atoms: _431  and  _433
REMARK  181  A    between atoms: _433  and  _434
REMARK  182  A    between atoms: _433  and  _436
REMARK  183  A    between atoms: _436  and  _437
REMARK  184  A    between atoms: _442  and  _443
REMARK  185  A    between atoms: _445  and  _447
REMARK  186  A    between atoms: _447  and  _448
REMARK  187  A    between atoms: _447  and  _450
REMARK  188  A    between atoms: _450  and  _451
REMARK  189  A    between atoms: _454  and  _456
REMARK  190  A    between atoms: _456  and  _457
REMARK  191  A    between atoms: _456  and  _459
REMARK  192  A    between atoms: _459  and  _460
REMARK  193  A    between atoms: _460  and  _461
REMARK  194  A    between atoms: _463  and  _465
REMARK  195  A    between atoms: _465  and  _466
REMARK  196  A    between atoms: _468  and  _470
REMARK  197  A    between atoms: _470  and  _471
REMARK  198  A    between atoms: _470  and  _473
REMARK  199  A    between atoms: _476  and  _478
REMARK  200  A    between atoms: _478  and  _479
REMARK  201  A    between atoms: _481  and  _483
REMARK  202  A    between atoms: _483  and  _484
REMARK  203  A    between atoms: _483  and  _486
REMARK  204  A    between atoms: _486  and  _487
REMARK  205  A    between atoms: _493  and  _495
REMARK  206  A    between atoms: _495  and  _496
REMARK  207  A    between atoms: _495  and  _498
REMARK  208  A    between atoms: _498  and  _499
REMARK  209  A    between atoms: _502  and  _504
REMARK  210  A    between atoms: _504  and  _505
REMARK  211  A    between atoms: _504  and  _507
REMARK  212  A    between atoms: _509  and  _511
REMARK  213  A    between atoms: _511  and  _512
REMARK  214  A    between atoms: _511  and  _514
REMARK  215  A    between atoms: _517  and  _519
REMARK  216  A    between atoms: _519  and  _520
REMARK  217  A    between atoms: _519  and  _522
REMARK  218  A    between atoms: _522  and  _523
REMARK  219  A    between atoms: _526  and  _528
REMARK  220  A    between atoms: _528  and  _529
REMARK  221  A    between atoms: _528  and  _531
REMARK  222  A    between atoms: _531  and  _532
REMARK  223  A    between atoms: _532  and  _533
REMARK  224  A    between atoms: _533  and  _534
REMARK                            x       y       z     vdW  Elec       q    Type
REMARK                         _______ _______ _______ _____ _____    ______ ____
ROOT
ATOM      1  O   HOH     1       8.357  16.335 102.132  0.00  0.00    +0.000 OA
ENDROOT
TORSDOF 0
REMARK  Name = ../refined-set-2016/4lbu/4lbu_pocket.pdb
REMARK  224 active torsions:
REMARK  status: ('A' for Active; 'I' for Inactive)
REMARK    1  A    between atoms: _1  and  _3
REMARK    2  A    between atoms: _3  and  _4
REMARK    3  A    between atoms: _3  and  _6
REMARK    4  A    between atoms: _6  and  _7
REMARK    5  A    between atoms: _7  and  _8
REMARK    6  A    between atoms: _11  and  _12
REMARK    7  A    between atoms: _17  and  _19
REMARK    8  A    between atoms: _19  and  _20
REMARK    9  A    between atoms: _19  and  _22
REMARK   10  A    between atoms: _25  and  _27
REMARK   11  A    between atoms: _27  and  _28
REMARK   12  A    between atoms: _30  and  _32
REMARK   13  A    between atoms: _32  and  _33
REMARK   14  A    between atoms: _32  and  _35
REMARK   15  A    between atoms: _35  and  _36
REMARK   16  A    between atoms: _39  and  _41
REMARK   17  A    between atoms: _41  and  _42
REMARK   18  A    between atoms: _45  and  _47
REMARK   19  A    between atoms: _47  and  _48
REMARK   20  A    between atoms: _51  and  _53
REMARK   21  A    between atoms: _53  and  _54
REMARK   22  A    between atoms: _53  and  _56
REMARK   23  A    between atoms: _56  and  _57
REMARK   24  A    between atoms: _60  and  _62
REMARK   25  A    between atoms: _62  and  _63
REMARK   26  A    between atoms: _62  and  _65
REMARK   27  A    between atoms: _65  and  _66
REMARK   28  A    between atoms: _69  and  _71
REMARK   29  A    between atoms: _71  and  _72
REMARK   30  A    between atoms: _74  and  _76
REMARK   31  A    between atoms: _76  and  _77
REMARK   32  A    between atoms: _76  and  _79
REMARK   33  A    between atoms: _79  and  _80
REMARK   34  A    between atoms: _85  and  _87
REMARK   35  A    between atoms: _87  and  _88
REMARK   36  A    between atoms: _87  and  _90
REMARK   37  A    between atoms: _90  and  _91
REMARK   38  A    between atoms: _94  and  _96
REMARK   39  A    between atoms: _96  and  _97
REMARK   40  A    between atoms: _96  and  _99
REMARK   41  A    between atoms: _99  and  _100
REMARK   42  A    between atoms: _105  and  _106
REMARK   43  A    between atoms: _108  and  _110
REMARK   44  A    between atoms: _110  and  _111
REMARK   45  A    between atoms: _110  and  _113
REMARK   46  A    between atoms: _113  and  _114
REMARK   47  A    between atoms: _119  and  _121
REMARK   48  A    between atoms: _121  and  _122
REMARK   49  A    between atoms: _121  and  _124
REMARK   50  A    between atoms: _124  and  _125
REMARK   51  A    between atoms: _128  and  _130
REMARK   52  A    between atoms: _130  and  _131
REMARK   53  A    between atoms: _130  and  _133
REMARK   54  A    between atoms: _133  and  _134
REMARK   55  A    between atoms: _137  and  _139
REMARK   56  A    between atoms: _139  and  _140
REMARK   57  A    between atoms: _139  and  _142
REMARK   58  A    between atoms: _142  and  _143
REMARK   59  A    between atoms: _146  and  _148
REMARK   60  A    between atoms: _148  and  _149
REMARK   61  A    between atoms: _148  and  _151
REMARK   62  A    between atoms: _151  and  _152
REMARK   63  A    between atoms: _155  and  _157
REMARK   64  A    between atoms: _157  and  _158
REMARK   65  A    between atoms: _157  and  _160
REMARK   66  A    between atoms: _160  and  _161
REMARK   67  A    between atoms: _163  and  _165
REMARK   68  A    between atoms: _165  and  _166
REMARK   69  A    between atoms: _168  and  _170
REMARK   70  A    between atoms: _170  and  _171
REMARK   71  A    between atoms: _173  and  _175
REMARK   72  A    between atoms: _175  and  _176
REMARK   73  A    between atoms: _175  and  _178
REMARK   74  A    between atoms: _178  and  _179
REMARK   75  A    between atoms: _184  and  _185
REMARK   76  A    between atoms: _187  and  _189
REMARK   77  A    between atoms: _189  and  _190
REMARK   78  A    between atoms: _189  and  _192
REMARK   79  A    between atoms: _192  and  _193
REMARK   80  A    between atoms: _193  and  _194
REMARK   81  A    between atoms: _199  and  _201
REMARK   82  A    between atoms: _201  and  _202
REMARK   83  A    between atoms: _201  and  _204
REMARK   84  A    between atoms: _207  and  _209
REMARK   85  A    between atoms: _209  and  _210
REMARK   86  A    between atoms: _209  and  _212
REMARK   87  A    between atoms: _212  and  _213
REMARK   88  A    between atoms: _213  and  _214
REMARK   89  A    between atoms: _216  and  _218
REMARK   90  A    between atoms: _218  and  _219
REMARK   91  A    between atoms: _218  and  _221
REMARK   92  A    between atoms: _221  and  _222
REMARK   93  A    between atoms: _224  and  _226
REMARK   94  A    between atoms: _226  and  _227
REMARK   95  A    between atoms: _226  and  _229
REMARK   96  A    between atoms: _229  and  _230
REMARK   97  A    between atoms: _230  and  _231
REMARK   98  A    between atoms: _236  and  _238
REMARK   99  A    between atoms: _238  and  _239
REMARK  100  A    between atoms: _238  and  _241
REMARK  101  A    between atoms: _241  and  _242
REMARK  102  A    between atoms: _242  and  _243
REMARK  103  A    between atoms: _245  and  _247
REMARK  104  A    between atoms: _247  and  _248
REMARK  105  A    between atoms: _251  and  _253
REMARK  106  A    between atoms: _253  and  _254
REMARK  107  A    between atoms: _253  and  _256
REMARK  108  A    between atoms: _256  and  _257
REMARK  109  A    between atoms: _263  and  _265
REMARK  110  A    between atoms: _265  and  _266
REMARK  111  A    between atoms: _265  and  _268
REMARK  112  A    between atoms: _268  and  _269
REMARK  113  A    between atoms: _272  and  _274
REMARK  114  A    between atoms: _274  and  _275
REMARK  115  A    between atoms: _274  and  _277
REMARK  116  A    between atoms: _277  and  _278
REMARK  117  A    between atoms: _278  and  _279
REMARK  118  A    between atoms: _282  and  _284
REMARK  119  A    between atoms: _284  and  _285
REMARK  120  A    between atoms: _284  and  _287
REMARK  121  A    between atoms: _289  and  _291
REMARK  122  A    between atoms: _291  and  _292
REMARK  123  A    between atoms: _291  and  _294
REMARK  124  A    between atoms: _294  and  _295
REMARK  125  A    between atoms: _298  and  _300
REMARK  126  A    between atoms: _300  and  _301
REMARK  127  A    between atoms: _300  and  _303
REMARK  128  A    between atoms: _303  and  _304
REMARK  129  A    between atoms: _306  and  _308
REMARK  130  A    between atoms: _308  and  _309
REMARK  131  A    between atoms: _308  and  _311
REMARK  132  A    between atoms: _311  and  _312
REMARK  133  A    between atoms: _315  and  _317
REMARK  134  A    between atoms: _317  and  _318
REMARK  135  A    between atoms: _317  and  _320
REMARK  136  A    between atoms: _320  and  _321
REMARK  137  A    between atoms: _321  and  _322
REMARK  138  A    between atoms: _327  and  _329
REMARK  139  A    between atoms: _329  and  _330
REMARK  140  A    between atoms: _329  and  _332
REMARK  141  A    between atoms: _332  and  _333
REMARK  142  A    between atoms: _333  and  _334
REMARK  143  A    between atoms: _339  and  _341
REMARK  144  A    between atoms: _341  and  _342
REMARK  145  A    between atoms: _344  and  _346
REMARK  146  A    between atoms: _346  and  _347
REMARK  147  A    between atoms: _346  and  _349
REMARK  148  A    between atoms: _349  and  _350
REMARK  149  A    between atoms: _352  and  _354
REMARK  150  A    between atoms: _354  and  _355
REMARK  151  A    between atoms: _354  and  _357
REMARK  152  A    between atoms: _357  and  _358
REMARK  153  A    between atoms: _358  and  _359
REMARK  154  A    between atoms: _359  and  _360
REMARK  155  A    between atoms: _369  and  _371
REMARK  156  A    between atoms: _371  and  _372
REMARK  157  A    between atoms: _375  and  _377
REMARK  158  A    between atoms: _377  and  _378
REMARK  159  A    between atoms: _377  and  _380
REMARK  160  A    between atoms: _383  and  _385
REMARK  161  A    between atoms: _385  and  _386
REMARK  162  A    between atoms: _388  and  _390
REMARK  163  A    between atoms: _390  and  _391
REMARK  164  A    between atoms: _393  and  _395
REMARK  165  A    between atoms: _395  and  _396
REMARK  166  A    between atoms: _395  and  _398
REMARK  167  A    between atoms: _398  and  _399
REMARK  168  A    between atoms: _402  and  _404
REMARK  169  A    between atoms: _404  and  _405
REMARK  170  A    between atoms: _408  and  _410
REMARK  171  A    between atoms: _410  and  _411
REMARK  172  A    between atoms: _410  and  _413
REMARK  173  A    between atoms: _416  and  _418
REMARK  174  A    between atoms: _418  and  _419
REMARK  175  A    between atoms: _421  and  _423
REMARK  176  A    between atoms: _423  and  _424
REMARK  177  A    between atoms: _423  and  _426
REMARK  178  A    between atoms: _426  and  _427
REMARK  179  A    between atoms: _427  and  _428
REMARK  180  A    between atoms: _431  and  _433
REMARK  181  A    between atoms: _433  and  _434
REMARK  182  A    between atoms: _433  and  _436
REMARK  183  A    between atoms: _436  and  _437
REMARK  184  A    between atoms: _442  and  _443
REMARK  185  A    between atoms: _445  and  _447
REMARK  186  A    between atoms: _447  and  _448
REMARK  187  A    between atoms: _447  and  _450
REMARK  188  A    between atoms: _450  and  _451
REMARK  189  A    between atoms: _454  and  _456
REMARK  190  A    between atoms: _456  and  _457
REMARK  191  A    between atoms: _456  and  _459
REMARK  192  A    between atoms: _459  and  _460
REMARK  193  A    between atoms: _460  and  _461
REMARK  194  A    between atoms: _463  and  _465
REMARK  195  A    between atoms: _465  and  _466
REMARK  196  A    between atoms: _468  and  _470
REMARK  197  A    between atoms: _470  and  _471
REMARK  198  A    between atoms: _470  and  _473
REMARK  199  A    between atoms: _476  and  _478
REMARK  200  A    between atoms: _478  and  _479
REMARK  201  A    between atoms: _481  and  _483
REMARK  202  A    between atoms: _483  and  _484
REMARK  203  A    between atoms: _483  and  _486
REMARK  204  A    between atoms: _486  and  _487
REMARK  205  A    between atoms: _493  and  _495
REMARK  206  A    between atoms: _495  and  _496
REMARK  207  A    between atoms: _495  and  _498
REMARK  208  A    between atoms: _498  and  _499
REMARK  209  A    between atoms: _502  and  _504
REMARK  210  A    between atoms: _504  and  _505
REMARK  211  A    between atoms: _504  and  _507
REMARK  212  A    between atoms: _509  and  _511
REMARK  213  A    between atoms: _511  and  _512
REMARK  214  A    between atoms: _511  and  _514
REMARK  215  A    between atoms: _517  and  _519
REMARK  216  A    between atoms: _519  and  _520
REMARK  217  A    between atoms: _519  and  _522
REMARK  218  A    between atoms: _522  and  _523
REMARK  219  A    between atoms: _526  and  _528
REMARK  220  A    between atoms: _528  and  _529
REMARK  221  A    between atoms: _528  and  _531
REMARK  222  A    between atoms: _531  and  _532
REMARK  223  A    between atoms: _532  and  _533
REMARK  224  A    between atoms: _533  and  _534
REMARK                            x       y       z     vdW  Elec       q    Type
REMARK                         _______ _______ _______ _____ _____    ______ ____
ROOT
ATOM      1  O   HOH     1      16.017  20.884  95.759  0.00  0.00    +0.000 OA
ENDROOT
TORSDOF 0
REMARK  Name = ../refined-set-2016/4lbu/4lbu_pocket.pdb
REMARK  224 active torsions:
REMARK  status: ('A' for Active; 'I' for Inactive)
REMARK    1  A    between atoms: _1  and  _3
REMARK    2  A    between atoms: _3  and  _4
REMARK    3  A    between atoms: _3  and  _6
REMARK    4  A    between atoms: _6  and  _7
REMARK    5  A    between atoms: _7  and  _8
REMARK    6  A    between atoms: _11  and  _12
REMARK    7  A    between atoms: _17  and  _19
REMARK    8  A    between atoms: _19  and  _20
REMARK    9  A    between atoms: _19  and  _22
REMARK   10  A    between atoms: _25  and  _27
REMARK   11  A    between atoms: _27  and  _28
REMARK   12  A    between atoms: _30  and  _32
REMARK   13  A    between atoms: _32  and  _33
REMARK   14  A    between atoms: _32  and  _35
REMARK   15  A    between atoms: _35  and  _36
REMARK   16  A    between atoms: _39  and  _41
REMARK   17  A    between atoms: _41  and  _42
REMARK   18  A    between atoms: _45  and  _47
REMARK   19  A    between atoms: _47  and  _48
REMARK   20  A    between atoms: _51  and  _53
REMARK   21  A    between atoms: _53  and  _54
REMARK   22  A    between atoms: _53  and  _56
REMARK   23  A    between atoms: _56  and  _57
REMARK   24  A    between atoms: _60  and  _62
REMARK   25  A    between atoms: _62  and  _63
REMARK   26  A    between atoms: _62  and  _65
REMARK   27  A    between atoms: _65  and  _66
REMARK   28  A    between atoms: _69  and  _71
REMARK   29  A    between atoms: _71  and  _72
REMARK   30  A    between atoms: _74  and  _76
REMARK   31  A    between atoms: _76  and  _77
REMARK   32  A    between atoms: _76  and  _79
REMARK   33  A    between atoms: _79  and  _80
REMARK   34  A    between atoms: _85  and  _87
REMARK   35  A    between atoms: _87  and  _88
REMARK   36  A    between atoms: _87  and  _90
REMARK   37  A    between atoms: _90  and  _91
REMARK   38  A    between atoms: _94  and  _96
REMARK   39  A    between atoms: _96  and  _97
REMARK   40  A    between atoms: _96  and  _99
REMARK   41  A    between atoms: _99  and  _100
REMARK   42  A    between atoms: _105  and  _106
REMARK   43  A    between atoms: _108  and  _110
REMARK   44  A    between atoms: _110  and  _111
REMARK   45  A    between atoms: _110  and  _113
REMARK   46  A    between atoms: _113  and  _114
REMARK   47  A    between atoms: _119  and  _121
REMARK   48  A    between atoms: _121  and  _122
REMARK   49  A    between atoms: _121  and  _124
REMARK   50  A    between atoms: _124  and  _125
REMARK   51  A    between atoms: _128  and  _130
REMARK   52  A    between atoms: _130  and  _131
REMARK   53  A    between atoms: _130  and  _133
REMARK   54  A    between atoms: _133  and  _134
REMARK   55  A    between atoms: _137  and  _139
REMARK   56  A    between atoms: _139  and  _140
REMARK   57  A    between atoms: _139  and  _142
REMARK   58  A    between atoms: _142  and  _143
REMARK   59  A    between atoms: _146  and  _148
REMARK   60  A    between atoms: _148  and  _149
REMARK   61  A    between atoms: _148  and  _151
REMARK   62  A    between atoms: _151  and  _152
REMARK   63  A    between atoms: _155  and  _157
REMARK   64  A    between atoms: _157  and  _158
REMARK   65  A    between atoms: _157  and  _160
REMARK   66  A    between atoms: _160  and  _161
REMARK   67  A    between atoms: _163  and  _165
REMARK   68  A    between atoms: _165  and  _166
REMARK   69  A    between atoms: _168  and  _170
REMARK   70  A    between atoms: _170  and  _171
REMARK   71  A    between atoms: _173  and  _175
REMARK   72  A    between atoms: _175  and  _176
REMARK   73  A    between atoms: _175  and  _178
REMARK   74  A    between atoms: _178  and  _179
REMARK   75  A    between atoms: _184  and  _185
REMARK   76  A    between atoms: _187  and  _189
REMARK   77  A    between atoms: _189  and  _190
REMARK   78  A    between atoms: _189  and  _192
REMARK   79  A    between atoms: _192  and  _193
REMARK   80  A    between atoms: _193  and  _194
REMARK   81  A    between atoms: _199  and  _201
REMARK   82  A    between atoms: _201  and  _202
REMARK   83  A    between atoms: _201  and  _204
REMARK   84  A    between atoms: _207  and  _209
REMARK   85  A    between atoms: _209  and  _210
REMARK   86  A    between atoms: _209  and  _212
REMARK   87  A    between atoms: _212  and  _213
REMARK   88  A    between atoms: _213  and  _214
REMARK   89  A    between atoms: _216  and  _218
REMARK   90  A    between atoms: _218  and  _219
REMARK   91  A    between atoms: _218  and  _221
REMARK   92  A    between atoms: _221  and  _222
REMARK   93  A    between atoms: _224  and  _226
REMARK   94  A    between atoms: _226  and  _227
REMARK   95  A    between atoms: _226  and  _229
REMARK   96  A    between atoms: _229  and  _230
REMARK   97  A    between atoms: _230  and  _231
REMARK   98  A    between atoms: _236  and  _238
REMARK   99  A    between atoms: _238  and  _239
REMARK  100  A    between atoms: _238  and  _241
REMARK  101  A    between atoms: _241  and  _242
REMARK  102  A    between atoms: _242  and  _243
REMARK  103  A    between atoms: _245  and  _247
REMARK  104  A    between atoms: _247  and  _248
REMARK  105  A    between atoms: _251  and  _253
REMARK  106  A    between atoms: _253  and  _254
REMARK  107  A    between atoms: _253  and  _256
REMARK  108  A    between atoms: _256  and  _257
REMARK  109  A    between atoms: _263  and  _265
REMARK  110  A    between atoms: _265  and  _266
REMARK  111  A    between atoms: _265  and  _268
REMARK  112  A    between atoms: _268  and  _269
REMARK  113  A    between atoms: _272  and  _274
REMARK  114  A    between atoms: _274  and  _275
REMARK  115  A    between atoms: _274  and  _277
REMARK  116  A    between atoms: _277  and  _278
REMARK  117  A    between atoms: _278  and  _279
REMARK  118  A    between atoms: _282  and  _284
REMARK  119  A    between atoms: _284  and  _285
REMARK  120  A    between atoms: _284  and  _287
REMARK  121  A    between atoms: _289  and  _291
REMARK  122  A    between atoms: _291  and  _292
REMARK  123  A    between atoms: _291  and  _294
REMARK  124  A    between atoms: _294  and  _295
REMARK  125  A    between atoms: _298  and  _300
REMARK  126  A    between atoms: _300  and  _301
REMARK  127  A    between atoms: _300  and  _303
REMARK  128  A    between atoms: _303  and  _304
REMARK  129  A    between atoms: _306  and  _308
REMARK  130  A    between atoms: _308  and  _309
REMARK  131  A    between atoms: _308  and  _311
REMARK  132  A    between atoms: _311  and  _312
REMARK  133  A    between atoms: _315  and  _317
REMARK  134  A    between atoms: _317  and  _318
REMARK  135  A    between atoms: _317  and  _320
REMARK  136  A    between atoms: _320  and  _321
REMARK  137  A    between atoms: _321  and  _322
REMARK  138  A    between atoms: _327  and  _329
REMARK  139  A    between atoms: _329  and  _330
REMARK  140  A    between atoms: _329  and  _332
REMARK  141  A    between atoms: _332  and  _333
REMARK  142  A    between atoms: _333  and  _334
REMARK  143  A    between atoms: _339  and  _341
REMARK  144  A    between atoms: _341  and  _342
REMARK  145  A    between atoms: _344  and  _346
REMARK  146  A    between atoms: _346  and  _347
REMARK  147  A    between atoms: _346  and  _349
REMARK  148  A    between atoms: _349  and  _350
REMARK  149  A    between atoms: _352  and  _354
REMARK  150  A    between atoms: _354  and  _355
REMARK  151  A    between atoms: _354  and  _357
REMARK  152  A    between atoms: _357  and  _358
REMARK  153  A    between atoms: _358  and  _359
REMARK  154  A    between atoms: _359  and  _360
REMARK  155  A    between atoms: _369  and  _371
REMARK  156  A    between atoms: _371  and  _372
REMARK  157  A    between atoms: _375  and  _377
REMARK  158  A    between atoms: _377  and  _378
REMARK  159  A    between atoms: _377  and  _380
REMARK  160  A    between atoms: _383  and  _385
REMARK  161  A    between atoms: _385  and  _386
REMARK  162  A    between atoms: _388  and  _390
REMARK  163  A    between atoms: _390  and  _391
REMARK  164  A    between atoms: _393  and  _395
REMARK  165  A    between atoms: _395  and  _396
REMARK  166  A    between atoms: _395  and  _398
REMARK  167  A    between atoms: _398  and  _399
REMARK  168  A    between atoms: _402  and  _404
REMARK  169  A    between atoms: _404  and  _405
REMARK  170  A    between atoms: _408  and  _410
REMARK  171  A    between atoms: _410  and  _411
REMARK  172  A    between atoms: _410  and  _413
REMARK  173  A    between atoms: _416  and  _418
REMARK  174  A    between atoms: _418  and  _419
REMARK  175  A    between atoms: _421  and  _423
REMARK  176  A    between atoms: _423  and  _424
REMARK  177  A    between atoms: _423  and  _426
REMARK  178  A    between atoms: _426  and  _427
REMARK  179  A    between atoms: _427  and  _428
REMARK  180  A    between atoms: _431  and  _433
REMARK  181  A    between atoms: _433  and  _434
REMARK  182  A    between atoms: _433  and  _436
REMARK  183  A    between atoms: _436  and  _437
REMARK  184  A    between atoms: _442  and  _443
REMARK  185  A    between atoms: _445  and  _447
REMARK  186  A    between atoms: _447  and  _448
REMARK  187  A    between atoms: _447  and  _450
REMARK  188  A    between atoms: _450  and  _451
REMARK  189  A    between atoms: _454  and  _456
REMARK  190  A    between atoms: _456  and  _457
REMARK  191  A    between atoms: _456  and  _459
REMARK  192  A    between atoms: _459  and  _460
REMARK  193  A    between atoms: _460  and  _461
REMARK  194  A    between atoms: _463  and  _465
REMARK  195  A    between atoms: _465  and  _466
REMARK  196  A    between atoms: _468  and  _470
REMARK  197  A    between atoms: _470  and  _471
REMARK  198  A    between atoms: _470  and  _473
REMARK  199  A    between atoms: _476  and  _478
REMARK  200  A    between atoms: _478  and  _479
REMARK  201  A    between atoms: _481  and  _483
REMARK  202  A    between atoms: _483  and  _484
REMARK  203  A    between atoms: _483  and  _486
REMARK  204  A    between atoms: _486  and  _487
REMARK  205  A    between atoms: _493  and  _495
REMARK  206  A    between atoms: _495  and  _496
REMARK  207  A    between atoms: _495  and  _498
REMARK  208  A    between atoms: _498  and  _499
REMARK  209  A    between atoms: _502  and  _504
REMARK  210  A    between atoms: _504  and  _505
REMARK  211  A    between atoms: _504  and  _507
REMARK  212  A    between atoms: _509  and  _511
REMARK  213  A    between atoms: _511  and  _512
REMARK  214  A    between atoms: _511  and  _514
REMARK  215  A    between atoms: _517  and  _519
REMARK  216  A    between atoms: _519  and  _520
REMARK  217  A    between atoms: _519  and  _522
REMARK  218  A    between atoms: _522  and  _523
REMARK  219  A    between atoms: _526  and  _528
REMARK  220  A    between atoms: _528  and  _529
REMARK  221  A    between atoms: _528  and  _531
REMARK  222  A    between atoms: _531  and  _532
REMARK  223  A    between atoms: _532  and  _533
REMARK  224  A    between atoms: _533  and  _534
REMARK                            x       y       z     vdW  Elec       q    Type
REMARK                         _______ _______ _______ _____ _____    ______ ____
ROOT
ATOM      1  O   HOH     1      15.848  22.347  93.346  0.00  0.00    +0.000 OA
ENDROOT
TORSDOF 0
REMARK  Name = ../refined-set-2016/4lbu/4lbu_pocket.pdb
REMARK  224 active torsions:
REMARK  status: ('A' for Active; 'I' for Inactive)
REMARK    1  A    between atoms: _1  and  _3
REMARK    2  A    between atoms: _3  and  _4
REMARK    3  A    between atoms: _3  and  _6
REMARK    4  A    between atoms: _6  and  _7
REMARK    5  A    between atoms: _7  and  _8
REMARK    6  A    between atoms: _11  and  _12
REMARK    7  A    between atoms: _17  and  _19
REMARK    8  A    between atoms: _19  and  _20
REMARK    9  A    between atoms: _19  and  _22
REMARK   10  A    between atoms: _25  and  _27
REMARK   11  A    between atoms: _27  and  _28
REMARK   12  A    between atoms: _30  and  _32
REMARK   13  A    between atoms: _32  and  _33
REMARK   14  A    between atoms: _32  and  _35
REMARK   15  A    between atoms: _35  and  _36
REMARK   16  A    between atoms: _39  and  _41
REMARK   17  A    between atoms: _41  and  _42
REMARK   18  A    between atoms: _45  and  _47
REMARK   19  A    between atoms: _47  and  _48
REMARK   20  A    between atoms: _51  and  _53
REMARK   21  A    between atoms: _53  and  _54
REMARK   22  A    between atoms: _53  and  _56
REMARK   23  A    between atoms: _56  and  _57
REMARK   24  A    between atoms: _60  and  _62
REMARK   25  A    between atoms: _62  and  _63
REMARK   26  A    between atoms: _62  and  _65
REMARK   27  A    between atoms: _65  and  _66
REMARK   28  A    between atoms: _69  and  _71
REMARK   29  A    between atoms: _71  and  _72
REMARK   30  A    between atoms: _74  and  _76
REMARK   31  A    between atoms: _76  and  _77
REMARK   32  A    between atoms: _76  and  _79
REMARK   33  A    between atoms: _79  and  _80
REMARK   34  A    between atoms: _85  and  _87
REMARK   35  A    between atoms: _87  and  _88
REMARK   36  A    between atoms: _87  and  _90
REMARK   37  A    between atoms: _90  and  _91
REMARK   38  A    between atoms: _94  and  _96
REMARK   39  A    between atoms: _96  and  _97
REMARK   40  A    between atoms: _96  and  _99
REMARK   41  A    between atoms: _99  and  _100
REMARK   42  A    between atoms: _105  and  _106
REMARK   43  A    between atoms: _108  and  _110
REMARK   44  A    between atoms: _110  and  _111
REMARK   45  A    between atoms: _110  and  _113
REMARK   46  A    between atoms: _113  and  _114
REMARK   47  A    between atoms: _119  and  _121
REMARK   48  A    between atoms: _121  and  _122
REMARK   49  A    between atoms: _121  and  _124
REMARK   50  A    between atoms: _124  and  _125
REMARK   51  A    between atoms: _128  and  _130
REMARK   52  A    between atoms: _130  and  _131
REMARK   53  A    between atoms: _130  and  _133
REMARK   54  A    between atoms: _133  and  _134
REMARK   55  A    between atoms: _137  and  _139
REMARK   56  A    between atoms: _139  and  _140
REMARK   57  A    between atoms: _139  and  _142
REMARK   58  A    between atoms: _142  and  _143
REMARK   59  A    between atoms: _146  and  _148
REMARK   60  A    between atoms: _148  and  _149
REMARK   61  A    between atoms: _148  and  _151
REMARK   62  A    between atoms: _151  and  _152
REMARK   63  A    between atoms: _155  and  _157
REMARK   64  A    between atoms: _157  and  _158
REMARK   65  A    between atoms: _157  and  _160
REMARK   66  A    between atoms: _160  and  _161
REMARK   67  A    between atoms: _163  and  _165
REMARK   68  A    between atoms: _165  and  _166
REMARK   69  A    between atoms: _168  and  _170
REMARK   70  A    between atoms: _170  and  _171
REMARK   71  A    between atoms: _173  and  _175
REMARK   72  A    between atoms: _175  and  _176
REMARK   73  A    between atoms: _175  and  _178
REMARK   74  A    between atoms: _178  and  _179
REMARK   75  A    between atoms: _184  and  _185
REMARK   76  A    between atoms: _187  and  _189
REMARK   77  A    between atoms: _189  and  _190
REMARK   78  A    between atoms: _189  and  _192
REMARK   79  A    between atoms: _192  and  _193
REMARK   80  A    between atoms: _193  and  _194
REMARK   81  A    between atoms: _199  and  _201
REMARK   82  A    between atoms: _201  and  _202
REMARK   83  A    between atoms: _201  and  _204
REMARK   84  A    between atoms: _207  and  _209
REMARK   85  A    between atoms: _209  and  _210
REMARK   86  A    between atoms: _209  and  _212
REMARK   87  A    between atoms: _212  and  _213
REMARK   88  A    between atoms: _213  and  _214
REMARK   89  A    between atoms: _216  and  _218
REMARK   90  A    between atoms: _218  and  _219
REMARK   91  A    between atoms: _218  and  _221
REMARK   92  A    between atoms: _221  and  _222
REMARK   93  A    between atoms: _224  and  _226
REMARK   94  A    between atoms: _226  and  _227
REMARK   95  A    between atoms: _226  and  _229
REMARK   96  A    between atoms: _229  and  _230
REMARK   97  A    between atoms: _230  and  _231
REMARK   98  A    between atoms: _236  and  _238
REMARK   99  A    between atoms: _238  and  _239
REMARK  100  A    between atoms: _238  and  _241
REMARK  101  A    between atoms: _241  and  _242
REMARK  102  A    between atoms: _242  and  _243
REMARK  103  A    between atoms: _245  and  _247
REMARK  104  A    between atoms: _247  and  _248
REMARK  105  A    between atoms: _251  and  _253
REMARK  106  A    between atoms: _253  and  _254
REMARK  107  A    between atoms: _253  and  _256
REMARK  108  A    between atoms: _256  and  _257
REMARK  109  A    between atoms: _263  and  _265
REMARK  110  A    between atoms: _265  and  _266
REMARK  111  A    between atoms: _265  and  _268
REMARK  112  A    between atoms: _268  and  _269
REMARK  113  A    between atoms: _272  and  _274
REMARK  114  A    between atoms: _274  and  _275
REMARK  115  A    between atoms: _274  and  _277
REMARK  116  A    between atoms: _277  and  _278
REMARK  117  A    between atoms: _278  and  _279
REMARK  118  A    between atoms: _282  and  _284
REMARK  119  A    between atoms: _284  and  _285
REMARK  120  A    between atoms: _284  and  _287
REMARK  121  A    between atoms: _289  and  _291
REMARK  122  A    between atoms: _291  and  _292
REMARK  123  A    between atoms: _291  and  _294
REMARK  124  A    between atoms: _294  and  _295
REMARK  125  A    between atoms: _298  and  _300
REMARK  126  A    between atoms: _300  and  _301
REMARK  127  A    between atoms: _300  and  _303
REMARK  128  A    between atoms: _303  and  _304
REMARK  129  A    between atoms: _306  and  _308
REMARK  130  A    between atoms: _308  and  _309
REMARK  131  A    between atoms: _308  and  _311
REMARK  132  A    between atoms: _311  and  _312
REMARK  133  A    between atoms: _315  and  _317
REMARK  134  A    between atoms: _317  and  _318
REMARK  135  A    between atoms: _317  and  _320
REMARK  136  A    between atoms: _320  and  _321
REMARK  137  A    between atoms: _321  and  _322
REMARK  138  A    between atoms: _327  and  _329
REMARK  139  A    between atoms: _329  and  _330
REMARK  140  A    between atoms: _329  and  _332
REMARK  141  A    between atoms: _332  and  _333
REMARK  142  A    between atoms: _333  and  _334
REMARK  143  A    between atoms: _339  and  _341
REMARK  144  A    between atoms: _341  and  _342
REMARK  145  A    between atoms: _344  and  _346
REMARK  146  A    between atoms: _346  and  _347
REMARK  147  A    between atoms: _346  and  _349
REMARK  148  A    between atoms: _349  and  _350
REMARK  149  A    between atoms: _352  and  _354
REMARK  150  A    between atoms: _354  and  _355
REMARK  151  A    between atoms: _354  and  _357
REMARK  152  A    between atoms: _357  and  _358
REMARK  153  A    between atoms: _358  and  _359
REMARK  154  A    between atoms: _359  and  _360
REMARK  155  A    between atoms: _369  and  _371
REMARK  156  A    between atoms: _371  and  _372
REMARK  157  A    between atoms: _375  and  _377
REMARK  158  A    between atoms: _377  and  _378
REMARK  159  A    between atoms: _377  and  _380
REMARK  160  A    between atoms: _383  and  _385
REMARK  161  A    between atoms: _385  and  _386
REMARK  162  A    between atoms: _388  and  _390
REMARK  163  A    between atoms: _390  and  _391
REMARK  164  A    between atoms: _393  and  _395
REMARK  165  A    between atoms: _395  and  _396
REMARK  166  A    between atoms: _395  and  _398
REMARK  167  A    between atoms: _398  and  _399
REMARK  168  A    between atoms: _402  and  _404
REMARK  169  A    between atoms: _404  and  _405
REMARK  170  A    between atoms: _408  and  _410
REMARK  171  A    between atoms: _410  and  _411
REMARK  172  A    between atoms: _410  and  _413
REMARK  173  A    between atoms: _416  and  _418
REMARK  174  A    between atoms: _418  and  _419
REMARK  175  A    between atoms: _421  and  _423
REMARK  176  A    between atoms: _423  and  _424
REMARK  177  A    between atoms: _423  and  _426
REMARK  178  A    between atoms: _426  and  _427
REMARK  179  A    between atoms: _427  and  _428
REMARK  180  A    between atoms: _431  and  _433
REMARK  181  A    between atoms: _433  and  _434
REMARK  182  A    between atoms: _433  and  _436
REMARK  183  A    between atoms: _436  and  _437
REMARK  184  A    between atoms: _442  and  _443
REMARK  185  A    between atoms: _445  and  _447
REMARK  186  A    between atoms: _447  and  _448
REMARK  187  A    between atoms: _447  and  _450
REMARK  188  A    between atoms: _450  and  _451
REMARK  189  A    between atoms: _454  and  _456
REMARK  190  A    between atoms: _456  and  _457
REMARK  191  A    between atoms: _456  and  _459
REMARK  192  A    between atoms: _459  and  _460
REMARK  193  A    between atoms: _460  and  _461
REMARK  194  A    between atoms: _463  and  _465
REMARK  195  A    between atoms: _465  and  _466
REMARK  196  A    between atoms: _468  and  _470
REMARK  197  A    between atoms: _470  and  _471
REMARK  198  A    between atoms: _470  and  _473
REMARK  199  A    between atoms: _476  and  _478
REMARK  200  A    between atoms: _478  and  _479
REMARK  201  A    between atoms: _481  and  _483
REMARK  202  A    between atoms: _483  and  _484
REMARK  203  A    between atoms: _483  and  _486
REMARK  204  A    between atoms: _486  and  _487
REMARK  205  A    between atoms: _493  and  _495
REMARK  206  A    between atoms: _495  and  _496
REMARK  207  A    between atoms: _495  and  _498
REMARK  208  A    between atoms: _498  and  _499
REMARK  209  A    between atoms: _502  and  _504
REMARK  210  A    between atoms: _504  and  _505
REMARK  211  A    between atoms: _504  and  _507
REMARK  212  A    between atoms: _509  and  _511
REMARK  213  A    between atoms: _511  and  _512
REMARK  214  A    between atoms: _511  and  _514
REMARK  215  A    between atoms: _517  and  _519
REMARK  216  A    between atoms: _519  and  _520
REMARK  217  A    between atoms: _519  and  _522
REMARK  218  A    between atoms: _522  and  _523
REMARK  219  A    between atoms: _526  and  _528
REMARK  220  A    between atoms: _528  and  _529
REMARK  221  A    between atoms: _528  and  _531
REMARK  222  A    between atoms: _531  and  _532
REMARK  223  A    between atoms: _532  and  _533
REMARK  224  A    between atoms: _533  and  _534
REMARK                            x       y       z     vdW  Elec       q    Type
REMARK                         _______ _______ _______ _____ _____    ______ ____
ROOT
ATOM      1  O   HOH     1      12.476  21.551  99.614  0.00  0.00    +0.000 OA
ENDROOT
TORSDOF 0
REMARK  Name = ../refined-set-2016/4lbu/4lbu_pocket.pdb
REMARK  224 active torsions:
REMARK  status: ('A' for Active; 'I' for Inactive)
REMARK    1  A    between atoms: _1  and  _3
REMARK    2  A    between atoms: _3  and  _4
REMARK    3  A    between atoms: _3  and  _6
REMARK    4  A    between atoms: _6  and  _7
REMARK    5  A    between atoms: _7  and  _8
REMARK    6  A    between atoms: _11  and  _12
REMARK    7  A    between atoms: _17  and  _19
REMARK    8  A    between atoms: _19  and  _20
REMARK    9  A    between atoms: _19  and  _22
REMARK   10  A    between atoms: _25  and  _27
REMARK   11  A    between atoms: _27  and  _28
REMARK   12  A    between atoms: _30  and  _32
REMARK   13  A    between atoms: _32  and  _33
REMARK   14  A    between atoms: _32  and  _35
REMARK   15  A    between atoms: _35  and  _36
REMARK   16  A    between atoms: _39  and  _41
REMARK   17  A    between atoms: _41  and  _42
REMARK   18  A    between atoms: _45  and  _47
REMARK   19  A    between atoms: _47  and  _48
REMARK   20  A    between atoms: _51  and  _53
REMARK   21  A    between atoms: _53  and  _54
REMARK   22  A    between atoms: _53  and  _56
REMARK   23  A    between atoms: _56  and  _57
REMARK   24  A    between atoms: _60  and  _62
REMARK   25  A    between atoms: _62  and  _63
REMARK   26  A    between atoms: _62  and  _65
REMARK   27  A    between atoms: _65  and  _66
REMARK   28  A    between atoms: _69  and  _71
REMARK   29  A    between atoms: _71  and  _72
REMARK   30  A    between atoms: _74  and  _76
REMARK   31  A    between atoms: _76  and  _77
REMARK   32  A    between atoms: _76  and  _79
REMARK   33  A    between atoms: _79  and  _80
REMARK   34  A    between atoms: _85  and  _87
REMARK   35  A    between atoms: _87  and  _88
REMARK   36  A    between atoms: _87  and  _90
REMARK   37  A    between atoms: _90  and  _91
REMARK   38  A    between atoms: _94  and  _96
REMARK   39  A    between atoms: _96  and  _97
REMARK   40  A    between atoms: _96  and  _99
REMARK   41  A    between atoms: _99  and  _100
REMARK   42  A    between atoms: _105  and  _106
REMARK   43  A    between atoms: _108  and  _110
REMARK   44  A    between atoms: _110  and  _111
REMARK   45  A    between atoms: _110  and  _113
REMARK   46  A    between atoms: _113  and  _114
REMARK   47  A    between atoms: _119  and  _121
REMARK   48  A    between atoms: _121  and  _122
REMARK   49  A    between atoms: _121  and  _124
REMARK   50  A    between atoms: _124  and  _125
REMARK   51  A    between atoms: _128  and  _130
REMARK   52  A    between atoms: _130  and  _131
REMARK   53  A    between atoms: _130  and  _133
REMARK   54  A    between atoms: _133  and  _134
REMARK   55  A    between atoms: _137  and  _139
REMARK   56  A    between atoms: _139  and  _140
REMARK   57  A    between atoms: _139  and  _142
REMARK   58  A    between atoms: _142  and  _143
REMARK   59  A    between atoms: _146  and  _148
REMARK   60  A    between atoms: _148  and  _149
REMARK   61  A    between atoms: _148  and  _151
REMARK   62  A    between atoms: _151  and  _152
REMARK   63  A    between atoms: _155  and  _157
REMARK   64  A    between atoms: _157  and  _158
REMARK   65  A    between atoms: _157  and  _160
REMARK   66  A    between atoms: _160  and  _161
REMARK   67  A    between atoms: _163  and  _165
REMARK   68  A    between atoms: _165  and  _166
REMARK   69  A    between atoms: _168  and  _170
REMARK   70  A    between atoms: _170  and  _171
REMARK   71  A    between atoms: _173  and  _175
REMARK   72  A    between atoms: _175  and  _176
REMARK   73  A    between atoms: _175  and  _178
REMARK   74  A    between atoms: _178  and  _179
REMARK   75  A    between atoms: _184  and  _185
REMARK   76  A    between atoms: _187  and  _189
REMARK   77  A    between atoms: _189  and  _190
REMARK   78  A    between atoms: _189  and  _192
REMARK   79  A    between atoms: _192  and  _193
REMARK   80  A    between atoms: _193  and  _194
REMARK   81  A    between atoms: _199  and  _201
REMARK   82  A    between atoms: _201  and  _202
REMARK   83  A    between atoms: _201  and  _204
REMARK   84  A    between atoms: _207  and  _209
REMARK   85  A    between atoms: _209  and  _210
REMARK   86  A    between atoms: _209  and  _212
REMARK   87  A    between atoms: _212  and  _213
REMARK   88  A    between atoms: _213  and  _214
REMARK   89  A    between atoms: _216  and  _218
REMARK   90  A    between atoms: _218  and  _219
REMARK   91  A    between atoms: _218  and  _221
REMARK   92  A    between atoms: _221  and  _222
REMARK   93  A    between atoms: _224  and  _226
REMARK   94  A    between atoms: _226  and  _227
REMARK   95  A    between atoms: _226  and  _229
REMARK   96  A    between atoms: _229  and  _230
REMARK   97  A    between atoms: _230  and  _231
REMARK   98  A    between atoms: _236  and  _238
REMARK   99  A    between atoms: _238  and  _239
REMARK  100  A    between atoms: _238  and  _241
REMARK  101  A    between atoms: _241  and  _242
REMARK  102  A    between atoms: _242  and  _243
REMARK  103  A    between atoms: _245  and  _247
REMARK  104  A    between atoms: _247  and  _248
REMARK  105  A    between atoms: _251  and  _253
REMARK  106  A    between atoms: _253  and  _254
REMARK  107  A    between atoms: _253  and  _256
REMARK  108  A    between atoms: _256  and  _257
REMARK  109  A    between atoms: _263  and  _265
REMARK  110  A    between atoms: _265  and  _266
REMARK  111  A    between atoms: _265  and  _268
REMARK  112  A    between atoms: _268  and  _269
REMARK  113  A    between atoms: _272  and  _274
REMARK  114  A    between atoms: _274  and  _275
REMARK  115  A    between atoms: _274  and  _277
REMARK  116  A    between atoms: _277  and  _278
REMARK  117  A    between atoms: _278  and  _279
REMARK  118  A    between atoms: _282  and  _284
REMARK  119  A    between atoms: _284  and  _285
REMARK  120  A    between atoms: _284  and  _287
REMARK  121  A    between atoms: _289  and  _291
REMARK  122  A    between atoms: _291  and  _292
REMARK  123  A    between atoms: _291  and  _294
REMARK  124  A    between atoms: _294  and  _295
REMARK  125  A    between atoms: _298  and  _300
REMARK  126  A    between atoms: _300  and  _301
REMARK  127  A    between atoms: _300  and  _303
REMARK  128  A    between atoms: _303  and  _304
REMARK  129  A    between atoms: _306  and  _308
REMARK  130  A    between atoms: _308  and  _309
REMARK  131  A    between atoms: _308  and  _311
REMARK  132  A    between atoms: _311  and  _312
REMARK  133  A    between atoms: _315  and  _317
REMARK  134  A    between atoms: _317  and  _318
REMARK  135  A    between atoms: _317  and  _320
REMARK  136  A    between atoms: _320  and  _321
REMARK  137  A    between atoms: _321  and  _322
REMARK  138  A    between atoms: _327  and  _329
REMARK  139  A    between atoms: _329  and  _330
REMARK  140  A    between atoms: _329  and  _332
REMARK  141  A    between atoms: _332  and  _333
REMARK  142  A    between atoms: _333  and  _334
REMARK  143  A    between atoms: _339  and  _341
REMARK  144  A    between atoms: _341  and  _342
REMARK  145  A    between atoms: _344  and  _346
REMARK  146  A    between atoms: _346  and  _347
REMARK  147  A    between atoms: _346  and  _349
REMARK  148  A    between atoms: _349  and  _350
REMARK  149  A    between atoms: _352  and  _354
REMARK  150  A    between atoms: _354  and  _355
REMARK  151  A    between atoms: _354  and  _357
REMARK  152  A    between atoms: _357  and  _358
REMARK  153  A    between atoms: _358  and  _359
REMARK  154  A    between atoms: _359  and  _360
REMARK  155  A    between atoms: _369  and  _371
REMARK  156  A    between atoms: _371  and  _372
REMARK  157  A    between atoms: _375  and  _377
REMARK  158  A    between atoms: _377  and  _378
REMARK  159  A    between atoms: _377  and  _380
REMARK  160  A    between atoms: _383  and  _385
REMARK  161  A    between atoms: _385  and  _386
REMARK  162  A    between atoms: _388  and  _390
REMARK  163  A    between atoms: _390  and  _391
REMARK  164  A    between atoms: _393  and  _395
REMARK  165  A    between atoms: _395  and  _396
REMARK  166  A    between atoms: _395  and  _398
REMARK  167  A    between atoms: _398  and  _399
REMARK  168  A    between atoms: _402  and  _404
REMARK  169  A    between atoms: _404  and  _405
REMARK  170  A    between atoms: _408  and  _410
REMARK  171  A    between atoms: _410  and  _411
REMARK  172  A    between atoms: _410  and  _413
REMARK  173  A    between atoms: _416  and  _418
REMARK  174  A    between atoms: _418  and  _419
REMARK  175  A    between atoms: _421  and  _423
REMARK  176  A    between atoms: _423  and  _424
REMARK  177  A    between atoms: _423  and  _426
REMARK  178  A    between atoms: _426  and  _427
REMARK  179  A    between atoms: _427  and  _428
REMARK  180  A    between atoms: _431  and  _433
REMARK  181  A    between atoms: _433  and  _434
REMARK  182  A    between atoms: _433  and  _436
REMARK  183  A    between atoms: _436  and  _437
REMARK  184  A    between atoms: _442  and  _443
REMARK  185  A    between atoms: _445  and  _447
REMARK  186  A    between atoms: _447  and  _448
REMARK  187  A    between atoms: _447  and  _450
REMARK  188  A    between atoms: _450  and  _451
REMARK  189  A    between atoms: _454  and  _456
REMARK  190  A    between atoms: _456  and  _457
REMARK  191  A    between atoms: _456  and  _459
REMARK  192  A    between atoms: _459  and  _460
REMARK  193  A    between atoms: _460  and  _461
REMARK  194  A    between atoms: _463  and  _465
REMARK  195  A    between atoms: _465  and  _466
REMARK  196  A    between atoms: _468  and  _470
REMARK  197  A    between atoms: _470  and  _471
REMARK  198  A    between atoms: _470  and  _473
REMARK  199  A    between atoms: _476  and  _478
REMARK  200  A    between atoms: _478  and  _479
REMARK  201  A    between atoms: _481  and  _483
REMARK  202  A    between atoms: _483  and  _484
REMARK  203  A    between atoms: _483  and  _486
REMARK  204  A    between atoms: _486  and  _487
REMARK  205  A    between atoms: _493  and  _495
REMARK  206  A    between atoms: _495  and  _496
REMARK  207  A    between atoms: _495  and  _498
REMARK  208  A    between atoms: _498  and  _499
REMARK  209  A    between atoms: _502  and  _504
REMARK  210  A    between atoms: _504  and  _505
REMARK  211  A    between atoms: _504  and  _507
REMARK  212  A    between atoms: _509  and  _511
REMARK  213  A    between atoms: _511  and  _512
REMARK  214  A    between atoms: _511  and  _514
REMARK  215  A    between atoms: _517  and  _519
REMARK  216  A    between atoms: _519  and  _520
REMARK  217  A    between atoms: _519  and  _522
REMARK  218  A    between atoms: _522  and  _523
REMARK  219  A    between atoms: _526  and  _528
REMARK  220  A    between atoms: _528  and  _529
REMARK  221  A    between atoms: _528  and  _531
REMARK  222  A    between atoms: _531  and  _532
REMARK  223  A    between atoms: _532  and  _533
REMARK  224  A    between atoms: _533  and  _534
REMARK                            x       y       z     vdW  Elec       q    Type
REMARK                         _______ _______ _______ _____ _____    ______ ____
ROOT
ATOM      1  O   HOH     1       7.443  15.702  85.697  0.00  0.00    +0.000 OA
ENDROOT
TORSDOF 0
REMARK  Name = ../refined-set-2016/4lbu/4lbu_pocket.pdb
REMARK  224 active torsions:
REMARK  status: ('A' for Active; 'I' for Inactive)
REMARK    1  A    between atoms: _1  and  _3
REMARK    2  A    between atoms: _3  and  _4
REMARK    3  A    between atoms: _3  and  _6
REMARK    4  A    between atoms: _6  and  _7
REMARK    5  A    between atoms: _7  and  _8
REMARK    6  A    between atoms: _11  and  _12
REMARK    7  A    between atoms: _17  and  _19
REMARK    8  A    between atoms: _19  and  _20
REMARK    9  A    between atoms: _19  and  _22
REMARK   10  A    between atoms: _25  and  _27
REMARK   11  A    between atoms: _27  and  _28
REMARK   12  A    between atoms: _30  and  _32
REMARK   13  A    between atoms: _32  and  _33
REMARK   14  A    between atoms: _32  and  _35
REMARK   15  A    between atoms: _35  and  _36
REMARK   16  A    between atoms: _39  and  _41
REMARK   17  A    between atoms: _41  and  _42
REMARK   18  A    between atoms: _45  and  _47
REMARK   19  A    between atoms: _47  and  _48
REMARK   20  A    between atoms: _51  and  _53
REMARK   21  A    between atoms: _53  and  _54
REMARK   22  A    between atoms: _53  and  _56
REMARK   23  A    between atoms: _56  and  _57
REMARK   24  A    between atoms: _60  and  _62
REMARK   25  A    between atoms: _62  and  _63
REMARK   26  A    between atoms: _62  and  _65
REMARK   27  A    between atoms: _65  and  _66
REMARK   28  A    between atoms: _69  and  _71
REMARK   29  A    between atoms: _71  and  _72
REMARK   30  A    between atoms: _74  and  _76
REMARK   31  A    between atoms: _76  and  _77
REMARK   32  A    between atoms: _76  and  _79
REMARK   33  A    between atoms: _79  and  _80
REMARK   34  A    between atoms: _85  and  _87
REMARK   35  A    between atoms: _87  and  _88
REMARK   36  A    between atoms: _87  and  _90
REMARK   37  A    between atoms: _90  and  _91
REMARK   38  A    between atoms: _94  and  _96
REMARK   39  A    between atoms: _96  and  _97
REMARK   40  A    between atoms: _96  and  _99
REMARK   41  A    between atoms: _99  and  _100
REMARK   42  A    between atoms: _105  and  _106
REMARK   43  A    between atoms: _108  and  _110
REMARK   44  A    between atoms: _110  and  _111
REMARK   45  A    between atoms: _110  and  _113
REMARK   46  A    between atoms: _113  and  _114
REMARK   47  A    between atoms: _119  and  _121
REMARK   48  A    between atoms: _121  and  _122
REMARK   49  A    between atoms: _121  and  _124
REMARK   50  A    between atoms: _124  and  _125
REMARK   51  A    between atoms: _128  and  _130
REMARK   52  A    between atoms: _130  and  _131
REMARK   53  A    between atoms: _130  and  _133
REMARK   54  A    between atoms: _133  and  _134
REMARK   55  A    between atoms: _137  and  _139
REMARK   56  A    between atoms: _139  and  _140
REMARK   57  A    between atoms: _139  and  _142
REMARK   58  A    between atoms: _142  and  _143
REMARK   59  A    between atoms: _146  and  _148
REMARK   60  A    between atoms: _148  and  _149
REMARK   61  A    between atoms: _148  and  _151
REMARK   62  A    between atoms: _151  and  _152
REMARK   63  A    between atoms: _155  and  _157
REMARK   64  A    between atoms: _157  and  _158
REMARK   65  A    between atoms: _157  and  _160
REMARK   66  A    between atoms: _160  and  _161
REMARK   67  A    between atoms: _163  and  _165
REMARK   68  A    between atoms: _165  and  _166
REMARK   69  A    between atoms: _168  and  _170
REMARK   70  A    between atoms: _170  and  _171
REMARK   71  A    between atoms: _173  and  _175
REMARK   72  A    between atoms: _175  and  _176
REMARK   73  A    between atoms: _175  and  _178
REMARK   74  A    between atoms: _178  and  _179
REMARK   75  A    between atoms: _184  and  _185
REMARK   76  A    between atoms: _187  and  _189
REMARK   77  A    between atoms: _189  and  _190
REMARK   78  A    between atoms: _189  and  _192
REMARK   79  A    between atoms: _192  and  _193
REMARK   80  A    between atoms: _193  and  _194
REMARK   81  A    between atoms: _199  and  _201
REMARK   82  A    between atoms: _201  and  _202
REMARK   83  A    between atoms: _201  and  _204
REMARK   84  A    between atoms: _207  and  _209
REMARK   85  A    between atoms: _209  and  _210
REMARK   86  A    between atoms: _209  and  _212
REMARK   87  A    between atoms: _212  and  _213
REMARK   88  A    between atoms: _213  and  _214
REMARK   89  A    between atoms: _216  and  _218
REMARK   90  A    between atoms: _218  and  _219
REMARK   91  A    between atoms: _218  and  _221
REMARK   92  A    between atoms: _221  and  _222
REMARK   93  A    between atoms: _224  and  _226
REMARK   94  A    between atoms: _226  and  _227
REMARK   95  A    between atoms: _226  and  _229
REMARK   96  A    between atoms: _229  and  _230
REMARK   97  A    between atoms: _230  and  _231
REMARK   98  A    between atoms: _236  and  _238
REMARK   99  A    between atoms: _238  and  _239
REMARK  100  A    between atoms: _238  and  _241
REMARK  101  A    between atoms: _241  and  _242
REMARK  102  A    between atoms: _242  and  _243
REMARK  103  A    between atoms: _245  and  _247
REMARK  104  A    between atoms: _247  and  _248
REMARK  105  A    between atoms: _251  and  _253
REMARK  106  A    between atoms: _253  and  _254
REMARK  107  A    between atoms: _253  and  _256
REMARK  108  A    between atoms: _256  and  _257
REMARK  109  A    between atoms: _263  and  _265
REMARK  110  A    between atoms: _265  and  _266
REMARK  111  A    between atoms: _265  and  _268
REMARK  112  A    between atoms: _268  and  _269
REMARK  113  A    between atoms: _272  and  _274
REMARK  114  A    between atoms: _274  and  _275
REMARK  115  A    between atoms: _274  and  _277
REMARK  116  A    between atoms: _277  and  _278
REMARK  117  A    between atoms: _278  and  _279
REMARK  118  A    between atoms: _282  and  _284
REMARK  119  A    between atoms: _284  and  _285
REMARK  120  A    between atoms: _284  and  _287
REMARK  121  A    between atoms: _289  and  _291
REMARK  122  A    between atoms: _291  and  _292
REMARK  123  A    between atoms: _291  and  _294
REMARK  124  A    between atoms: _294  and  _295
REMARK  125  A    between atoms: _298  and  _300
REMARK  126  A    between atoms: _300  and  _301
REMARK  127  A    between atoms: _300  and  _303
REMARK  128  A    between atoms: _303  and  _304
REMARK  129  A    between atoms: _306  and  _308
REMARK  130  A    between atoms: _308  and  _309
REMARK  131  A    between atoms: _308  and  _311
REMARK  132  A    between atoms: _311  and  _312
REMARK  133  A    between atoms: _315  and  _317
REMARK  134  A    between atoms: _317  and  _318
REMARK  135  A    between atoms: _317  and  _320
REMARK  136  A    between atoms: _320  and  _321
REMARK  137  A    between atoms: _321  and  _322
REMARK  138  A    between atoms: _327  and  _329
REMARK  139  A    between atoms: _329  and  _330
REMARK  140  A    between atoms: _329  and  _332
REMARK  141  A    between atoms: _332  and  _333
REMARK  142  A    between atoms: _333  and  _334
REMARK  143  A    between atoms: _339  and  _341
REMARK  144  A    between atoms: _341  and  _342
REMARK  145  A    between atoms: _344  and  _346
REMARK  146  A    between atoms: _346  and  _347
REMARK  147  A    between atoms: _346  and  _349
REMARK  148  A    between atoms: _349  and  _350
REMARK  149  A    between atoms: _352  and  _354
REMARK  150  A    between atoms: _354  and  _355
REMARK  151  A    between atoms: _354  and  _357
REMARK  152  A    between atoms: _357  and  _358
REMARK  153  A    between atoms: _358  and  _359
REMARK  154  A    between atoms: _359  and  _360
REMARK  155  A    between atoms: _369  and  _371
REMARK  156  A    between atoms: _371  and  _372
REMARK  157  A    between atoms: _375  and  _377
REMARK  158  A    between atoms: _377  and  _378
REMARK  159  A    between atoms: _377  and  _380
REMARK  160  A    between atoms: _383  and  _385
REMARK  161  A    between atoms: _385  and  _386
REMARK  162  A    between atoms: _388  and  _390
REMARK  163  A    between atoms: _390  and  _391
REMARK  164  A    between atoms: _393  and  _395
REMARK  165  A    between atoms: _395  and  _396
REMARK  166  A    between atoms: _395  and  _398
REMARK  167  A    between atoms: _398  and  _399
REMARK  168  A    between atoms: _402  and  _404
REMARK  169  A    between atoms: _404  and  _405
REMARK  170  A    between atoms: _408  and  _410
REMARK  171  A    between atoms: _410  and  _411
REMARK  172  A    between atoms: _410  and  _413
REMARK  173  A    between atoms: _416  and  _418
REMARK  174  A    between atoms: _418  and  _419
REMARK  175  A    between atoms: _421  and  _423
REMARK  176  A    between atoms: _423  and  _424
REMARK  177  A    between atoms: _423  and  _426
REMARK  178  A    between atoms: _426  and  _427
REMARK  179  A    between atoms: _427  and  _428
REMARK  180  A    between atoms: _431  and  _433
REMARK  181  A    between atoms: _433  and  _434
REMARK  182  A    between atoms: _433  and  _436
REMARK  183  A    between atoms: _436  and  _437
REMARK  184  A    between atoms: _442  and  _443
REMARK  185  A    between atoms: _445  and  _447
REMARK  186  A    between atoms: _447  and  _448
REMARK  187  A    between atoms: _447  and  _450
REMARK  188  A    between atoms: _450  and  _451
REMARK  189  A    between atoms: _454  and  _456
REMARK  190  A    between atoms: _456  and  _457
REMARK  191  A    between atoms: _456  and  _459
REMARK  192  A    between atoms: _459  and  _460
REMARK  193  A    between atoms: _460  and  _461
REMARK  194  A    between atoms: _463  and  _465
REMARK  195  A    between atoms: _465  and  _466
REMARK  196  A    between atoms: _468  and  _470
REMARK  197  A    between atoms: _470  and  _471
REMARK  198  A    between atoms: _470  and  _473
REMARK  199  A    between atoms: _476  and  _478
REMARK  200  A    between atoms: _478  and  _479
REMARK  201  A    between atoms: _481  and  _483
REMARK  202  A    between atoms: _483  and  _484
REMARK  203  A    between atoms: _483  and  _486
REMARK  204  A    between atoms: _486  and  _487
REMARK  205  A    between atoms: _493  and  _495
REMARK  206  A    between atoms: _495  and  _496
REMARK  207  A    between atoms: _495  and  _498
REMARK  208  A    between atoms: _498  and  _499
REMARK  209  A    between atoms: _502  and  _504
REMARK  210  A    between atoms: _504  and  _505
REMARK  211  A    between atoms: _504  and  _507
REMARK  212  A    between atoms: _509  and  _511
REMARK  213  A    between atoms: _511  and  _512
REMARK  214  A    between atoms: _511  and  _514
REMARK  215  A    between atoms: _517  and  _519
REMARK  216  A    between atoms: _519  and  _520
REMARK  217  A    between atoms: _519  and  _522
REMARK  218  A    between atoms: _522  and  _523
REMARK  219  A    between atoms: _526  and  _528
REMARK  220  A    between atoms: _528  and  _529
REMARK  221  A    between atoms: _528  and  _531
REMARK  222  A    between atoms: _531  and  _532
REMARK  223  A    between atoms: _532  and  _533
REMARK  224  A    between atoms: _533  and  _534
REMARK                            x       y       z     vdW  Elec       q    Type
REMARK                         _______ _______ _______ _____ _____    ______ ____
ROOT
ATOM      1  O   HOH     1       7.430  16.367  83.022  0.00  0.00    +0.000 OA
ENDROOT
TORSDOF 0
REMARK  Name = ../refined-set-2016/4lbu/4lbu_pocket.pdb
REMARK  224 active torsions:
REMARK  status: ('A' for Active; 'I' for Inactive)
REMARK    1  A    between atoms: _1  and  _3
REMARK    2  A    between atoms: _3  and  _4
REMARK    3  A    between atoms: _3  and  _6
REMARK    4  A    between atoms: _6  and  _7
REMARK    5  A    between atoms: _7  and  _8
REMARK    6  A    between atoms: _11  and  _12
REMARK    7  A    between atoms: _17  and  _19
REMARK    8  A    between atoms: _19  and  _20
REMARK    9  A    between atoms: _19  and  _22
REMARK   10  A    between atoms: _25  and  _27
REMARK   11  A    between atoms: _27  and  _28
REMARK   12  A    between atoms: _30  and  _32
REMARK   13  A    between atoms: _32  and  _33
REMARK   14  A    between atoms: _32  and  _35
REMARK   15  A    between atoms: _35  and  _36
REMARK   16  A    between atoms: _39  and  _41
REMARK   17  A    between atoms: _41  and  _42
REMARK   18  A    between atoms: _45  and  _47
REMARK   19  A    between atoms: _47  and  _48
REMARK   20  A    between atoms: _51  and  _53
REMARK   21  A    between atoms: _53  and  _54
REMARK   22  A    between atoms: _53  and  _56
REMARK   23  A    between atoms: _56  and  _57
REMARK   24  A    between atoms: _60  and  _62
REMARK   25  A    between atoms: _62  and  _63
REMARK   26  A    between atoms: _62  and  _65
REMARK   27  A    between atoms: _65  and  _66
REMARK   28  A    between atoms: _69  and  _71
REMARK   29  A    between atoms: _71  and  _72
REMARK   30  A    between atoms: _74  and  _76
REMARK   31  A    between atoms: _76  and  _77
REMARK   32  A    between atoms: _76  and  _79
REMARK   33  A    between atoms: _79  and  _80
REMARK   34  A    between atoms: _85  and  _87
REMARK   35  A    between atoms: _87  and  _88
REMARK   36  A    between atoms: _87  and  _90
REMARK   37  A    between atoms: _90  and  _91
REMARK   38  A    between atoms: _94  and  _96
REMARK   39  A    between atoms: _96  and  _97
REMARK   40  A    between atoms: _96  and  _99
REMARK   41  A    between atoms: _99  and  _100
REMARK   42  A    between atoms: _105  and  _106
REMARK   43  A    between atoms: _108  and  _110
REMARK   44  A    between atoms: _110  and  _111
REMARK   45  A    between atoms: _110  and  _113
REMARK   46  A    between atoms: _113  and  _114
REMARK   47  A    between atoms: _119  and  _121
REMARK   48  A    between atoms: _121  and  _122
REMARK   49  A    between atoms: _121  and  _124
REMARK   50  A    between atoms: _124  and  _125
REMARK   51  A    between atoms: _128  and  _130
REMARK   52  A    between atoms: _130  and  _131
REMARK   53  A    between atoms: _130  and  _133
REMARK   54  A    between atoms: _133  and  _134
REMARK   55  A    between atoms: _137  and  _139
REMARK   56  A    between atoms: _139  and  _140
REMARK   57  A    between atoms: _139  and  _142
REMARK   58  A    between atoms: _142  and  _143
REMARK   59  A    between atoms: _146  and  _148
REMARK   60  A    between atoms: _148  and  _149
REMARK   61  A    between atoms: _148  and  _151
REMARK   62  A    between atoms: _151  and  _152
REMARK   63  A    between atoms: _155  and  _157
REMARK   64  A    between atoms: _157  and  _158
REMARK   65  A    between atoms: _157  and  _160
REMARK   66  A    between atoms: _160  and  _161
REMARK   67  A    between atoms: _163  and  _165
REMARK   68  A    between atoms: _165  and  _166
REMARK   69  A    between atoms: _168  and  _170
REMARK   70  A    between atoms: _170  and  _171
REMARK   71  A    between atoms: _173  and  _175
REMARK   72  A    between atoms: _175  and  _176
REMARK   73  A    between atoms: _175  and  _178
REMARK   74  A    between atoms: _178  and  _179
REMARK   75  A    between atoms: _184  and  _185
REMARK   76  A    between atoms: _187  and  _189
REMARK   77  A    between atoms: _189  and  _190
REMARK   78  A    between atoms: _189  and  _192
REMARK   79  A    between atoms: _192  and  _193
REMARK   80  A    between atoms: _193  and  _194
REMARK   81  A    between atoms: _199  and  _201
REMARK   82  A    between atoms: _201  and  _202
REMARK   83  A    between atoms: _201  and  _204
REMARK   84  A    between atoms: _207  and  _209
REMARK   85  A    between atoms: _209  and  _210
REMARK   86  A    between atoms: _209  and  _212
REMARK   87  A    between atoms: _212  and  _213
REMARK   88  A    between atoms: _213  and  _214
REMARK   89  A    between atoms: _216  and  _218
REMARK   90  A    between atoms: _218  and  _219
REMARK   91  A    between atoms: _218  and  _221
REMARK   92  A    between atoms: _221  and  _222
REMARK   93  A    between atoms: _224  and  _226
REMARK   94  A    between atoms: _226  and  _227
REMARK   95  A    between atoms: _226  and  _229
REMARK   96  A    between atoms: _229  and  _230
REMARK   97  A    between atoms: _230  and  _231
REMARK   98  A    between atoms: _236  and  _238
REMARK   99  A    between atoms: _238  and  _239
REMARK  100  A    between atoms: _238  and  _241
REMARK  101  A    between atoms: _241  and  _242
REMARK  102  A    between atoms: _242  and  _243
REMARK  103  A    between atoms: _245  and  _247
REMARK  104  A    between atoms: _247  and  _248
REMARK  105  A    between atoms: _251  and  _253
REMARK  106  A    between atoms: _253  and  _254
REMARK  107  A    between atoms: _253  and  _256
REMARK  108  A    between atoms: _256  and  _257
REMARK  109  A    between atoms: _263  and  _265
REMARK  110  A    between atoms: _265  and  _266
REMARK  111  A    between atoms: _265  and  _268
REMARK  112  A    between atoms: _268  and  _269
REMARK  113  A    between atoms: _272  and  _274
REMARK  114  A    between atoms: _274  and  _275
REMARK  115  A    between atoms: _274  and  _277
REMARK  116  A    between atoms: _277  and  _278
REMARK  117  A    between atoms: _278  and  _279
REMARK  118  A    between atoms: _282  and  _284
REMARK  119  A    between atoms: _284  and  _285
REMARK  120  A    between atoms: _284  and  _287
REMARK  121  A    between atoms: _289  and  _291
REMARK  122  A    between atoms: _291  and  _292
REMARK  123  A    between atoms: _291  and  _294
REMARK  124  A    between atoms: _294  and  _295
REMARK  125  A    between atoms: _298  and  _300
REMARK  126  A    between atoms: _300  and  _301
REMARK  127  A    between atoms: _300  and  _303
REMARK  128  A    between atoms: _303  and  _304
REMARK  129  A    between atoms: _306  and  _308
REMARK  130  A    between atoms: _308  and  _309
REMARK  131  A    between atoms: _308  and  _311
REMARK  132  A    between atoms: _311  and  _312
REMARK  133  A    between atoms: _315  and  _317
REMARK  134  A    between atoms: _317  and  _318
REMARK  135  A    between atoms: _317  and  _320
REMARK  136  A    between atoms: _320  and  _321
REMARK  137  A    between atoms: _321  and  _322
REMARK  138  A    between atoms: _327  and  _329
REMARK  139  A    between atoms: _329  and  _330
REMARK  140  A    between atoms: _329  and  _332
REMARK  141  A    between atoms: _332  and  _333
REMARK  142  A    between atoms: _333  and  _334
REMARK  143  A    between atoms: _339  and  _341
REMARK  144  A    between atoms: _341  and  _342
REMARK  145  A    between atoms: _344  and  _346
REMARK  146  A    between atoms: _346  and  _347
REMARK  147  A    between atoms: _346  and  _349
REMARK  148  A    between atoms: _349  and  _350
REMARK  149  A    between atoms: _352  and  _354
REMARK  150  A    between atoms: _354  and  _355
REMARK  151  A    between atoms: _354  and  _357
REMARK  152  A    between atoms: _357  and  _358
REMARK  153  A    between atoms: _358  and  _359
REMARK  154  A    between atoms: _359  and  _360
REMARK  155  A    between atoms: _369  and  _371
REMARK  156  A    between atoms: _371  and  _372
REMARK  157  A    between atoms: _375  and  _377
REMARK  158  A    between atoms: _377  and  _378
REMARK  159  A    between atoms: _377  and  _380
REMARK  160  A    between atoms: _383  and  _385
REMARK  161  A    between atoms: _385  and  _386
REMARK  162  A    between atoms: _388  and  _390
REMARK  163  A    between atoms: _390  and  _391
REMARK  164  A    between atoms: _393  and  _395
REMARK  165  A    between atoms: _395  and  _396
REMARK  166  A    between atoms: _395  and  _398
REMARK  167  A    between atoms: _398  and  _399
REMARK  168  A    between atoms: _402  and  _404
REMARK  169  A    between atoms: _404  and  _405
REMARK  170  A    between atoms: _408  and  _410
REMARK  171  A    between atoms: _410  and  _411
REMARK  172  A    between atoms: _410  and  _413
REMARK  173  A    between atoms: _416  and  _418
REMARK  174  A    between atoms: _418  and  _419
REMARK  175  A    between atoms: _421  and  _423
REMARK  176  A    between atoms: _423  and  _424
REMARK  177  A    between atoms: _423  and  _426
REMARK  178  A    between atoms: _426  and  _427
REMARK  179  A    between atoms: _427  and  _428
REMARK  180  A    between atoms: _431  and  _433
REMARK  181  A    between atoms: _433  and  _434
REMARK  182  A    between atoms: _433  and  _436
REMARK  183  A    between atoms: _436  and  _437
REMARK  184  A    between atoms: _442  and  _443
REMARK  185  A    between atoms: _445  and  _447
REMARK  186  A    between atoms: _447  and  _448
REMARK  187  A    between atoms: _447  and  _450
REMARK  188  A    between atoms: _450  and  _451
REMARK  189  A    between atoms: _454  and  _456
REMARK  190  A    between atoms: _456  and  _457
REMARK  191  A    between atoms: _456  and  _459
REMARK  192  A    between atoms: _459  and  _460
REMARK  193  A    between atoms: _460  and  _461
REMARK  194  A    between atoms: _463  and  _465
REMARK  195  A    between atoms: _465  and  _466
REMARK  196  A    between atoms: _468  and  _470
REMARK  197  A    between atoms: _470  and  _471
REMARK  198  A    between atoms: _470  and  _473
REMARK  199  A    between atoms: _476  and  _478
REMARK  200  A    between atoms: _478  and  _479
REMARK  201  A    between atoms: _481  and  _483
REMARK  202  A    between atoms: _483  and  _484
REMARK  203  A    between atoms: _483  and  _486
REMARK  204  A    between atoms: _486  and  _487
REMARK  205  A    between atoms: _493  and  _495
REMARK  206  A    between atoms: _495  and  _496
REMARK  207  A    between atoms: _495  and  _498
REMARK  208  A    between atoms: _498  and  _499
REMARK  209  A    between atoms: _502  and  _504
REMARK  210  A    between atoms: _504  and  _505
REMARK  211  A    between atoms: _504  and  _507
REMARK  212  A    between atoms: _509  and  _511
REMARK  213  A    between atoms: _511  and  _512
REMARK  214  A    between atoms: _511  and  _514
REMARK  215  A    between atoms: _517  and  _519
REMARK  216  A    between atoms: _519  and  _520
REMARK  217  A    between atoms: _519  and  _522
REMARK  218  A    between atoms: _522  and  _523
REMARK  219  A    between atoms: _526  and  _528
REMARK  220  A    between atoms: _528  and  _529
REMARK  221  A    between atoms: _528  and  _531
REMARK  222  A    between atoms: _531  and  _532
REMARK  223  A    between atoms: _532  and  _533
REMARK  224  A    between atoms: _533  and  _534
REMARK                            x       y       z     vdW  Elec       q    Type
REMARK                         _______ _______ _______ _____ _____    ______ ____
ROOT
ATOM      1  O   HOH     1       2.823  22.648  86.910  0.00  0.00    +0.000 OA
ENDROOT
TORSDOF 0
REMARK  Name = ../refined-set-2016/4lbu/4lbu_pocket.pdb
REMARK  224 active torsions:
REMARK  status: ('A' for Active; 'I' for Inactive)
REMARK    1  A    between atoms: _1  and  _3
REMARK    2  A    between atoms: _3  and  _4
REMARK    3  A    between atoms: _3  and  _6
REMARK    4  A    between atoms: _6  and  _7
REMARK    5  A    between atoms: _7  and  _8
REMARK    6  A    between atoms: _11  and  _12
REMARK    7  A    between atoms: _17  and  _19
REMARK    8  A    between atoms: _19  and  _20
REMARK    9  A    between atoms: _19  and  _22
REMARK   10  A    between atoms: _25  and  _27
REMARK   11  A    between atoms: _27  and  _28
REMARK   12  A    between atoms: _30  and  _32
REMARK   13  A    between atoms: _32  and  _33
REMARK   14  A    between atoms: _32  and  _35
REMARK   15  A    between atoms: _35  and  _36
REMARK   16  A    between atoms: _39  and  _41
REMARK   17  A    between atoms: _41  and  _42
REMARK   18  A    between atoms: _45  and  _47
REMARK   19  A    between atoms: _47  and  _48
REMARK   20  A    between atoms: _51  and  _53
REMARK   21  A    between atoms: _53  and  _54
REMARK   22  A    between atoms: _53  and  _56
REMARK   23  A    between atoms: _56  and  _57
REMARK   24  A    between atoms: _60  and  _62
REMARK   25  A    between atoms: _62  and  _63
REMARK   26  A    between atoms: _62  and  _65
REMARK   27  A    between atoms: _65  and  _66
REMARK   28  A    between atoms: _69  and  _71
REMARK   29  A    between atoms: _71  and  _72
REMARK   30  A    between atoms: _74  and  _76
REMARK   31  A    between atoms: _76  and  _77
REMARK   32  A    between atoms: _76  and  _79
REMARK   33  A    between atoms: _79  and  _80
REMARK   34  A    between atoms: _85  and  _87
REMARK   35  A    between atoms: _87  and  _88
REMARK   36  A    between atoms: _87  and  _90
REMARK   37  A    between atoms: _90  and  _91
REMARK   38  A    between atoms: _94  and  _96
REMARK   39  A    between atoms: _96  and  _97
REMARK   40  A    between atoms: _96  and  _99
REMARK   41  A    between atoms: _99  and  _100
REMARK   42  A    between atoms: _105  and  _106
REMARK   43  A    between atoms: _108  and  _110
REMARK   44  A    between atoms: _110  and  _111
REMARK   45  A    between atoms: _110  and  _113
REMARK   46  A    between atoms: _113  and  _114
REMARK   47  A    between atoms: _119  and  _121
REMARK   48  A    between atoms: _121  and  _122
REMARK   49  A    between atoms: _121  and  _124
REMARK   50  A    between atoms: _124  and  _125
REMARK   51  A    between atoms: _128  and  _130
REMARK   52  A    between atoms: _130  and  _131
REMARK   53  A    between atoms: _130  and  _133
REMARK   54  A    between atoms: _133  and  _134
REMARK   55  A    between atoms: _137  and  _139
REMARK   56  A    between atoms: _139  and  _140
REMARK   57  A    between atoms: _139  and  _142
REMARK   58  A    between atoms: _142  and  _143
REMARK   59  A    between atoms: _146  and  _148
REMARK   60  A    between atoms: _148  and  _149
REMARK   61  A    between atoms: _148  and  _151
REMARK   62  A    between atoms: _151  and  _152
REMARK   63  A    between atoms: _155  and  _157
REMARK   64  A    between atoms: _157  and  _158
REMARK   65  A    between atoms: _157  and  _160
REMARK   66  A    between atoms: _160  and  _161
REMARK   67  A    between atoms: _163  and  _165
REMARK   68  A    between atoms: _165  and  _166
REMARK   69  A    between atoms: _168  and  _170
REMARK   70  A    between atoms: _170  and  _171
REMARK   71  A    between atoms: _173  and  _175
REMARK   72  A    between atoms: _175  and  _176
REMARK   73  A    between atoms: _175  and  _178
REMARK   74  A    between atoms: _178  and  _179
REMARK   75  A    between atoms: _184  and  _185
REMARK   76  A    between atoms: _187  and  _189
REMARK   77  A    between atoms: _189  and  _190
REMARK   78  A    between atoms: _189  and  _192
REMARK   79  A    between atoms: _192  and  _193
REMARK   80  A    between atoms: _193  and  _194
REMARK   81  A    between atoms: _199  and  _201
REMARK   82  A    between atoms: _201  and  _202
REMARK   83  A    between atoms: _201  and  _204
REMARK   84  A    between atoms: _207  and  _209
REMARK   85  A    between atoms: _209  and  _210
REMARK   86  A    between atoms: _209  and  _212
REMARK   87  A    between atoms: _212  and  _213
REMARK   88  A    between atoms: _213  and  _214
REMARK   89  A    between atoms: _216  and  _218
REMARK   90  A    between atoms: _218  and  _219
REMARK   91  A    between atoms: _218  and  _221
REMARK   92  A    between atoms: _221  and  _222
REMARK   93  A    between atoms: _224  and  _226
REMARK   94  A    between atoms: _226  and  _227
REMARK   95  A    between atoms: _226  and  _229
REMARK   96  A    between atoms: _229  and  _230
REMARK   97  A    between atoms: _230  and  _231
REMARK   98  A    between atoms: _236  and  _238
REMARK   99  A    between atoms: _238  and  _239
REMARK  100  A    between atoms: _238  and  _241
REMARK  101  A    between atoms: _241  and  _242
REMARK  102  A    between atoms: _242  and  _243
REMARK  103  A    between atoms: _245  and  _247
REMARK  104  A    between atoms: _247  and  _248
REMARK  105  A    between atoms: _251  and  _253
REMARK  106  A    between atoms: _253  and  _254
REMARK  107  A    between atoms: _253  and  _256
REMARK  108  A    between atoms: _256  and  _257
REMARK  109  A    between atoms: _263  and  _265
REMARK  110  A    between atoms: _265  and  _266
REMARK  111  A    between atoms: _265  and  _268
REMARK  112  A    between atoms: _268  and  _269
REMARK  113  A    between atoms: _272  and  _274
REMARK  114  A    between atoms: _274  and  _275
REMARK  115  A    between atoms: _274  and  _277
REMARK  116  A    between atoms: _277  and  _278
REMARK  117  A    between atoms: _278  and  _279
REMARK  118  A    between atoms: _282  and  _284
REMARK  119  A    between atoms: _284  and  _285
REMARK  120  A    between atoms: _284  and  _287
REMARK  121  A    between atoms: _289  and  _291
REMARK  122  A    between atoms: _291  and  _292
REMARK  123  A    between atoms: _291  and  _294
REMARK  124  A    between atoms: _294  and  _295
REMARK  125  A    between atoms: _298  and  _300
REMARK  126  A    between atoms: _300  and  _301
REMARK  127  A    between atoms: _300  and  _303
REMARK  128  A    between atoms: _303  and  _304
REMARK  129  A    between atoms: _306  and  _308
REMARK  130  A    between atoms: _308  and  _309
REMARK  131  A    between atoms: _308  and  _311
REMARK  132  A    between atoms: _311  and  _312
REMARK  133  A    between atoms: _315  and  _317
REMARK  134  A    between atoms: _317  and  _318
REMARK  135  A    between atoms: _317  and  _320
REMARK  136  A    between atoms: _320  and  _321
REMARK  137  A    between atoms: _321  and  _322
REMARK  138  A    between atoms: _327  and  _329
REMARK  139  A    between atoms: _329  and  _330
REMARK  140  A    between atoms: _329  and  _332
REMARK  141  A    between atoms: _332  and  _333
REMARK  142  A    between atoms: _333  and  _334
REMARK  143  A    between atoms: _339  and  _341
REMARK  144  A    between atoms: _341  and  _342
REMARK  145  A    between atoms: _344  and  _346
REMARK  146  A    between atoms: _346  and  _347
REMARK  147  A    between atoms: _346  and  _349
REMARK  148  A    between atoms: _349  and  _350
REMARK  149  A    between atoms: _352  and  _354
REMARK  150  A    between atoms: _354  and  _355
REMARK  151  A    between atoms: _354  and  _357
REMARK  152  A    between atoms: _357  and  _358
REMARK  153  A    between atoms: _358  and  _359
REMARK  154  A    between atoms: _359  and  _360
REMARK  155  A    between atoms: _369  and  _371
REMARK  156  A    between atoms: _371  and  _372
REMARK  157  A    between atoms: _375  and  _377
REMARK  158  A    between atoms: _377  and  _378
REMARK  159  A    between atoms: _377  and  _380
REMARK  160  A    between atoms: _383  and  _385
REMARK  161  A    between atoms: _385  and  _386
REMARK  162  A    between atoms: _388  and  _390
REMARK  163  A    between atoms: _390  and  _391
REMARK  164  A    between atoms: _393  and  _395
REMARK  165  A    between atoms: _395  and  _396
REMARK  166  A    between atoms: _395  and  _398
REMARK  167  A    between atoms: _398  and  _399
REMARK  168  A    between atoms: _402  and  _404
REMARK  169  A    between atoms: _404  and  _405
REMARK  170  A    between atoms: _408  and  _410
REMARK  171  A    between atoms: _410  and  _411
REMARK  172  A    between atoms: _410  and  _413
REMARK  173  A    between atoms: _416  and  _418
REMARK  174  A    between atoms: _418  and  _419
REMARK  175  A    between atoms: _421  and  _423
REMARK  176  A    between atoms: _423  and  _424
REMARK  177  A    between atoms: _423  and  _426
REMARK  178  A    between atoms: _426  and  _427
REMARK  179  A    between atoms: _427  and  _428
REMARK  180  A    between atoms: _431  and  _433
REMARK  181  A    between atoms: _433  and  _434
REMARK  182  A    between atoms: _433  and  _436
REMARK  183  A    between atoms: _436  and  _437
REMARK  184  A    between atoms: _442  and  _443
REMARK  185  A    between atoms: _445  and  _447
REMARK  186  A    between atoms: _447  and  _448
REMARK  187  A    between atoms: _447  and  _450
REMARK  188  A    between atoms: _450  and  _451
REMARK  189  A    between atoms: _454  and  _456
REMARK  190  A    between atoms: _456  and  _457
REMARK  191  A    between atoms: _456  and  _459
REMARK  192  A    between atoms: _459  and  _460
REMARK  193  A    between atoms: _460  and  _461
REMARK  194  A    between atoms: _463  and  _465
REMARK  195  A    between atoms: _465  and  _466
REMARK  196  A    between atoms: _468  and  _470
REMARK  197  A    between atoms: _470  and  _471
REMARK  198  A    between atoms: _470  and  _473
REMARK  199  A    between atoms: _476  and  _478
REMARK  200  A    between atoms: _478  and  _479
REMARK  201  A    between atoms: _481  and  _483
REMARK  202  A    between atoms: _483  and  _484
REMARK  203  A    between atoms: _483  and  _486
REMARK  204  A    between atoms: _486  and  _487
REMARK  205  A    between atoms: _493  and  _495
REMARK  206  A    between atoms: _495  and  _496
REMARK  207  A    between atoms: _495  and  _498
REMARK  208  A    between atoms: _498  and  _499
REMARK  209  A    between atoms: _502  and  _504
REMARK  210  A    between atoms: _504  and  _505
REMARK  211  A    between atoms: _504  and  _507
REMARK  212  A    between atoms: _509  and  _511
REMARK  213  A    between atoms: _511  and  _512
REMARK  214  A    between atoms: _511  and  _514
REMARK  215  A    between atoms: _517  and  _519
REMARK  216  A    between atoms: _519  and  _520
REMARK  217  A    between atoms: _519  and  _522
REMARK  218  A    between atoms: _522  and  _523
REMARK  219  A    between atoms: _526  and  _528
REMARK  220  A    between atoms: _528  and  _529
REMARK  221  A    between atoms: _528  and  _531
REMARK  222  A    between atoms: _531  and  _532
REMARK  223  A    between atoms: _532  and  _533
REMARK  224  A    between atoms: _533  and  _534
REMARK                            x       y       z     vdW  Elec       q    Type
REMARK                         _______ _______ _______ _____ _____    ______ ____
ROOT
ATOM      1  O   HOH     1      -4.170   9.840  86.513  0.00  0.00    +0.000 OA
ENDROOT
TORSDOF 0
REMARK  Name = ../refined-set-2016/4lbu/4lbu_pocket.pdb
REMARK  224 active torsions:
REMARK  status: ('A' for Active; 'I' for Inactive)
REMARK    1  A    between atoms: _1  and  _3
REMARK    2  A    between atoms: _3  and  _4
REMARK    3  A    between atoms: _3  and  _6
REMARK    4  A    between atoms: _6  and  _7
REMARK    5  A    between atoms: _7  and  _8
REMARK    6  A    between atoms: _11  and  _12
REMARK    7  A    between atoms: _17  and  _19
REMARK    8  A    between atoms: _19  and  _20
REMARK    9  A    between atoms: _19  and  _22
REMARK   10  A    between atoms: _25  and  _27
REMARK   11  A    between atoms: _27  and  _28
REMARK   12  A    between atoms: _30  and  _32
REMARK   13  A    between atoms: _32  and  _33
REMARK   14  A    between atoms: _32  and  _35
REMARK   15  A    between atoms: _35  and  _36
REMARK   16  A    between atoms: _39  and  _41
REMARK   17  A    between atoms: _41  and  _42
REMARK   18  A    between atoms: _45  and  _47
REMARK   19  A    between atoms: _47  and  _48
REMARK   20  A    between atoms: _51  and  _53
REMARK   21  A    between atoms: _53  and  _54
REMARK   22  A    between atoms: _53  and  _56
REMARK   23  A    between atoms: _56  and  _57
REMARK   24  A    between atoms: _60  and  _62
REMARK   25  A    between atoms: _62  and  _63
REMARK   26  A    between atoms: _62  and  _65
REMARK   27  A    between atoms: _65  and  _66
REMARK   28  A    between atoms: _69  and  _71
REMARK   29  A    between atoms: _71  and  _72
REMARK   30  A    between atoms: _74  and  _76
REMARK   31  A    between atoms: _76  and  _77
REMARK   32  A    between atoms: _76  and  _79
REMARK   33  A    between atoms: _79  and  _80
REMARK   34  A    between atoms: _85  and  _87
REMARK   35  A    between atoms: _87  and  _88
REMARK   36  A    between atoms: _87  and  _90
REMARK   37  A    between atoms: _90  and  _91
REMARK   38  A    between atoms: _94  and  _96
REMARK   39  A    between atoms: _96  and  _97
REMARK   40  A    between atoms: _96  and  _99
REMARK   41  A    between atoms: _99  and  _100
REMARK   42  A    between atoms: _105  and  _106
REMARK   43  A    between atoms: _108  and  _110
REMARK   44  A    between atoms: _110  and  _111
REMARK   45  A    between atoms: _110  and  _113
REMARK   46  A    between atoms: _113  and  _114
REMARK   47  A    between atoms: _119  and  _121
REMARK   48  A    between atoms: _121  and  _122
REMARK   49  A    between atoms: _121  and  _124
REMARK   50  A    between atoms: _124  and  _125
REMARK   51  A    between atoms: _128  and  _130
REMARK   52  A    between atoms: _130  and  _131
REMARK   53  A    between atoms: _130  and  _133
REMARK   54  A    between atoms: _133  and  _134
REMARK   55  A    between atoms: _137  and  _139
REMARK   56  A    between atoms: _139  and  _140
REMARK   57  A    between atoms: _139  and  _142
REMARK   58  A    between atoms: _142  and  _143
REMARK   59  A    between atoms: _146  and  _148
REMARK   60  A    between atoms: _148  and  _149
REMARK   61  A    between atoms: _148  and  _151
REMARK   62  A    between atoms: _151  and  _152
REMARK   63  A    between atoms: _155  and  _157
REMARK   64  A    between atoms: _157  and  _158
REMARK   65  A    between atoms: _157  and  _160
REMARK   66  A    between atoms: _160  and  _161
REMARK   67  A    between atoms: _163  and  _165
REMARK   68  A    between atoms: _165  and  _166
REMARK   69  A    between atoms: _168  and  _170
REMARK   70  A    between atoms: _170  and  _171
REMARK   71  A    between atoms: _173  and  _175
REMARK   72  A    between atoms: _175  and  _176
REMARK   73  A    between atoms: _175  and  _178
REMARK   74  A    between atoms: _178  and  _179
REMARK   75  A    between atoms: _184  and  _185
REMARK   76  A    between atoms: _187  and  _189
REMARK   77  A    between atoms: _189  and  _190
REMARK   78  A    between atoms: _189  and  _192
REMARK   79  A    between atoms: _192  and  _193
REMARK   80  A    between atoms: _193  and  _194
REMARK   81  A    between atoms: _199  and  _201
REMARK   82  A    between atoms: _201  and  _202
REMARK   83  A    between atoms: _201  and  _204
REMARK   84  A    between atoms: _207  and  _209
REMARK   85  A    between atoms: _209  and  _210
REMARK   86  A    between atoms: _209  and  _212
REMARK   87  A    between atoms: _212  and  _213
REMARK   88  A    between atoms: _213  and  _214
REMARK   89  A    between atoms: _216  and  _218
REMARK   90  A    between atoms: _218  and  _219
REMARK   91  A    between atoms: _218  and  _221
REMARK   92  A    between atoms: _221  and  _222
REMARK   93  A    between atoms: _224  and  _226
REMARK   94  A    between atoms: _226  and  _227
REMARK   95  A    between atoms: _226  and  _229
REMARK   96  A    between atoms: _229  and  _230
REMARK   97  A    between atoms: _230  and  _231
REMARK   98  A    between atoms: _236  and  _238
REMARK   99  A    between atoms: _238  and  _239
REMARK  100  A    between atoms: _238  and  _241
REMARK  101  A    between atoms: _241  and  _242
REMARK  102  A    between atoms: _242  and  _243
REMARK  103  A    between atoms: _245  and  _247
REMARK  104  A    between atoms: _247  and  _248
REMARK  105  A    between atoms: _251  and  _253
REMARK  106  A    between atoms: _253  and  _254
REMARK  107  A    between atoms: _253  and  _256
REMARK  108  A    between atoms: _256  and  _257
REMARK  109  A    between atoms: _263  and  _265
REMARK  110  A    between atoms: _265  and  _266
REMARK  111  A    between atoms: _265  and  _268
REMARK  112  A    between atoms: _268  and  _269
REMARK  113  A    between atoms: _272  and  _274
REMARK  114  A    between atoms: _274  and  _275
REMARK  115  A    between atoms: _274  and  _277
REMARK  116  A    between atoms: _277  and  _278
REMARK  117  A    between atoms: _278  and  _279
REMARK  118  A    between atoms: _282  and  _284
REMARK  119  A    between atoms: _284  and  _285
REMARK  120  A    between atoms: _284  and  _287
REMARK  121  A    between atoms: _289  and  _291
REMARK  122  A    between atoms: _291  and  _292
REMARK  123  A    between atoms: _291  and  _294
REMARK  124  A    between atoms: _294  and  _295
REMARK  125  A    between atoms: _298  and  _300
REMARK  126  A    between atoms: _300  and  _301
REMARK  127  A    between atoms: _300  and  _303
REMARK  128  A    between atoms: _303  and  _304
REMARK  129  A    between atoms: _306  and  _308
REMARK  130  A    between atoms: _308  and  _309
REMARK  131  A    between atoms: _308  and  _311
REMARK  132  A    between atoms: _311  and  _312
REMARK  133  A    between atoms: _315  and  _317
REMARK  134  A    between atoms: _317  and  _318
REMARK  135  A    between atoms: _317  and  _320
REMARK  136  A    between atoms: _320  and  _321
REMARK  137  A    between atoms: _321  and  _322
REMARK  138  A    between atoms: _327  and  _329
REMARK  139  A    between atoms: _329  and  _330
REMARK  140  A    between atoms: _329  and  _332
REMARK  141  A    between atoms: _332  and  _333
REMARK  142  A    between atoms: _333  and  _334
REMARK  143  A    between atoms: _339  and  _341
REMARK  144  A    between atoms: _341  and  _342
REMARK  145  A    between atoms: _344  and  _346
REMARK  146  A    between atoms: _346  and  _347
REMARK  147  A    between atoms: _346  and  _349
REMARK  148  A    between atoms: _349  and  _350
REMARK  149  A    between atoms: _352  and  _354
REMARK  150  A    between atoms: _354  and  _355
REMARK  151  A    between atoms: _354  and  _357
REMARK  152  A    between atoms: _357  and  _358
REMARK  153  A    between atoms: _358  and  _359
REMARK  154  A    between atoms: _359  and  _360
REMARK  155  A    between atoms: _369  and  _371
REMARK  156  A    between atoms: _371  and  _372
REMARK  157  A    between atoms: _375  and  _377
REMARK  158  A    between atoms: _377  and  _378
REMARK  159  A    between atoms: _377  and  _380
REMARK  160  A    between atoms: _383  and  _385
REMARK  161  A    between atoms: _385  and  _386
REMARK  162  A    between atoms: _388  and  _390
REMARK  163  A    between atoms: _390  and  _391
REMARK  164  A    between atoms: _393  and  _395
REMARK  165  A    between atoms: _395  and  _396
REMARK  166  A    between atoms: _395  and  _398
REMARK  167  A    between atoms: _398  and  _399
REMARK  168  A    between atoms: _402  and  _404
REMARK  169  A    between atoms: _404  and  _405
REMARK  170  A    between atoms: _408  and  _410
REMARK  171  A    between atoms: _410  and  _411
REMARK  172  A    between atoms: _410  and  _413
REMARK  173  A    between atoms: _416  and  _418
REMARK  174  A    between atoms: _418  and  _419
REMARK  175  A    between atoms: _421  and  _423
REMARK  176  A    between atoms: _423  and  _424
REMARK  177  A    between atoms: _423  and  _426
REMARK  178  A    between atoms: _426  and  _427
REMARK  179  A    between atoms: _427  and  _428
REMARK  180  A    between atoms: _431  and  _433
REMARK  181  A    between atoms: _433  and  _434
REMARK  182  A    between atoms: _433  and  _436
REMARK  183  A    between atoms: _436  and  _437
REMARK  184  A    between atoms: _442  and  _443
REMARK  185  A    between atoms: _445  and  _447
REMARK  186  A    between atoms: _447  and  _448
REMARK  187  A    between atoms: _447  and  _450
REMARK  188  A    between atoms: _450  and  _451
REMARK  189  A    between atoms: _454  and  _456
REMARK  190  A    between atoms: _456  and  _457
REMARK  191  A    between atoms: _456  and  _459
REMARK  192  A    between atoms: _459  and  _460
REMARK  193  A    between atoms: _460  and  _461
REMARK  194  A    between atoms: _463  and  _465
REMARK  195  A    between atoms: _465  and  _466
REMARK  196  A    between atoms: _468  and  _470
REMARK  197  A    between atoms: _470  and  _471
REMARK  198  A    between atoms: _470  and  _473
REMARK  199  A    between atoms: _476  and  _478
REMARK  200  A    between atoms: _478  and  _479
REMARK  201  A    between atoms: _481  and  _483
REMARK  202  A    between atoms: _483  and  _484
REMARK  203  A    between atoms: _483  and  _486
REMARK  204  A    between atoms: _486  and  _487
REMARK  205  A    between atoms: _493  and  _495
REMARK  206  A    between atoms: _495  and  _496
REMARK  207  A    between atoms: _495  and  _498
REMARK  208  A    between atoms: _498  and  _499
REMARK  209  A    between atoms: _502  and  _504
REMARK  210  A    between atoms: _504  and  _505
REMARK  211  A    between atoms: _504  and  _507
REMARK  212  A    between atoms: _509  and  _511
REMARK  213  A    between atoms: _511  and  _512
REMARK  214  A    between atoms: _511  and  _514
REMARK  215  A    between atoms: _517  and  _519
REMARK  216  A    between atoms: _519  and  _520
REMARK  217  A    between atoms: _519  and  _522
REMARK  218  A    between atoms: _522  and  _523
REMARK  219  A    between atoms: _526  and  _528
REMARK  220  A    between atoms: _528  and  _529
REMARK  221  A    between atoms: _528  and  _531
REMARK  222  A    between atoms: _531  and  _532
REMARK  223  A    between atoms: _532  and  _533
REMARK  224  A    between atoms: _533  and  _534
REMARK                            x       y       z     vdW  Elec       q    Type
REMARK                         _______ _______ _______ _____ _____    ______ ____
ROOT
ATOM      1  O   HOH     1      15.493  16.046  82.246  0.00  0.00    +0.000 OA
ENDROOT
TORSDOF 0
REMARK  Name = ../refined-set-2016/4lbu/4lbu_pocket.pdb
REMARK  224 active torsions:
REMARK  status: ('A' for Active; 'I' for Inactive)
REMARK    1  A    between atoms: _1  and  _3
REMARK    2  A    between atoms: _3  and  _4
REMARK    3  A    between atoms: _3  and  _6
REMARK    4  A    between atoms: _6  and  _7
REMARK    5  A    between atoms: _7  and  _8
REMARK    6  A    between atoms: _11  and  _12
REMARK    7  A    between atoms: _17  and  _19
REMARK    8  A    between atoms: _19  and  _20
REMARK    9  A    between atoms: _19  and  _22
REMARK   10  A    between atoms: _25  and  _27
REMARK   11  A    between atoms: _27  and  _28
REMARK   12  A    between atoms: _30  and  _32
REMARK   13  A    between atoms: _32  and  _33
REMARK   14  A    between atoms: _32  and  _35
REMARK   15  A    between atoms: _35  and  _36
REMARK   16  A    between atoms: _39  and  _41
REMARK   17  A    between atoms: _41  and  _42
REMARK   18  A    between atoms: _45  and  _47
REMARK   19  A    between atoms: _47  and  _48
REMARK   20  A    between atoms: _51  and  _53
REMARK   21  A    between atoms: _53  and  _54
REMARK   22  A    between atoms: _53  and  _56
REMARK   23  A    between atoms: _56  and  _57
REMARK   24  A    between atoms: _60  and  _62
REMARK   25  A    between atoms: _62  and  _63
REMARK   26  A    between atoms: _62  and  _65
REMARK   27  A    between atoms: _65  and  _66
REMARK   28  A    between atoms: _69  and  _71
REMARK   29  A    between atoms: _71  and  _72
REMARK   30  A    between atoms: _74  and  _76
REMARK   31  A    between atoms: _76  and  _77
REMARK   32  A    between atoms: _76  and  _79
REMARK   33  A    between atoms: _79  and  _80
REMARK   34  A    between atoms: _85  and  _87
REMARK   35  A    between atoms: _87  and  _88
REMARK   36  A    between atoms: _87  and  _90
REMARK   37  A    between atoms: _90  and  _91
REMARK   38  A    between atoms: _94  and  _96
REMARK   39  A    between atoms: _96  and  _97
REMARK   40  A    between atoms: _96  and  _99
REMARK   41  A    between atoms: _99  and  _100
REMARK   42  A    between atoms: _105  and  _106
REMARK   43  A    between atoms: _108  and  _110
REMARK   44  A    between atoms: _110  and  _111
REMARK   45  A    between atoms: _110  and  _113
REMARK   46  A    between atoms: _113  and  _114
REMARK   47  A    between atoms: _119  and  _121
REMARK   48  A    between atoms: _121  and  _122
REMARK   49  A    between atoms: _121  and  _124
REMARK   50  A    between atoms: _124  and  _125
REMARK   51  A    between atoms: _128  and  _130
REMARK   52  A    between atoms: _130  and  _131
REMARK   53  A    between atoms: _130  and  _133
REMARK   54  A    between atoms: _133  and  _134
REMARK   55  A    between atoms: _137  and  _139
REMARK   56  A    between atoms: _139  and  _140
REMARK   57  A    between atoms: _139  and  _142
REMARK   58  A    between atoms: _142  and  _143
REMARK   59  A    between atoms: _146  and  _148
REMARK   60  A    between atoms: _148  and  _149
REMARK   61  A    between atoms: _148  and  _151
REMARK   62  A    between atoms: _151  and  _152
REMARK   63  A    between atoms: _155  and  _157
REMARK   64  A    between atoms: _157  and  _158
REMARK   65  A    between atoms: _157  and  _160
REMARK   66  A    between atoms: _160  and  _161
REMARK   67  A    between atoms: _163  and  _165
REMARK   68  A    between atoms: _165  and  _166
REMARK   69  A    between atoms: _168  and  _170
REMARK   70  A    between atoms: _170  and  _171
REMARK   71  A    between atoms: _173  and  _175
REMARK   72  A    between atoms: _175  and  _176
REMARK   73  A    between atoms: _175  and  _178
REMARK   74  A    between atoms: _178  and  _179
REMARK   75  A    between atoms: _184  and  _185
REMARK   76  A    between atoms: _187  and  _189
REMARK   77  A    between atoms: _189  and  _190
REMARK   78  A    between atoms: _189  and  _192
REMARK   79  A    between atoms: _192  and  _193
REMARK   80  A    between atoms: _193  and  _194
REMARK   81  A    between atoms: _199  and  _201
REMARK   82  A    between atoms: _201  and  _202
REMARK   83  A    between atoms: _201  and  _204
REMARK   84  A    between atoms: _207  and  _209
REMARK   85  A    between atoms: _209  and  _210
REMARK   86  A    between atoms: _209  and  _212
REMARK   87  A    between atoms: _212  and  _213
REMARK   88  A    between atoms: _213  and  _214
REMARK   89  A    between atoms: _216  and  _218
REMARK   90  A    between atoms: _218  and  _219
REMARK   91  A    between atoms: _218  and  _221
REMARK   92  A    between atoms: _221  and  _222
REMARK   93  A    between atoms: _224  and  _226
REMARK   94  A    between atoms: _226  and  _227
REMARK   95  A    between atoms: _226  and  _229
REMARK   96  A    between atoms: _229  and  _230
REMARK   97  A    between atoms: _230  and  _231
REMARK   98  A    between atoms: _236  and  _238
REMARK   99  A    between atoms: _238  and  _239
REMARK  100  A    between atoms: _238  and  _241
REMARK  101  A    between atoms: _241  and  _242
REMARK  102  A    between atoms: _242  and  _243
REMARK  103  A    between atoms: _245  and  _247
REMARK  104  A    between atoms: _247  and  _248
REMARK  105  A    between atoms: _251  and  _253
REMARK  106  A    between atoms: _253  and  _254
REMARK  107  A    between atoms: _253  and  _256
REMARK  108  A    between atoms: _256  and  _257
REMARK  109  A    between atoms: _263  and  _265
REMARK  110  A    between atoms: _265  and  _266
REMARK  111  A    between atoms: _265  and  _268
REMARK  112  A    between atoms: _268  and  _269
REMARK  113  A    between atoms: _272  and  _274
REMARK  114  A    between atoms: _274  and  _275
REMARK  115  A    between atoms: _274  and  _277
REMARK  116  A    between atoms: _277  and  _278
REMARK  117  A    between atoms: _278  and  _279
REMARK  118  A    between atoms: _282  and  _284
REMARK  119  A    between atoms: _284  and  _285
REMARK  120  A    between atoms: _284  and  _287
REMARK  121  A    between atoms: _289  and  _291
REMARK  122  A    between atoms: _291  and  _292
REMARK  123  A    between atoms: _291  and  _294
REMARK  124  A    between atoms: _294  and  _295
REMARK  125  A    between atoms: _298  and  _300
REMARK  126  A    between atoms: _300  and  _301
REMARK  127  A    between atoms: _300  and  _303
REMARK  128  A    between atoms: _303  and  _304
REMARK  129  A    between atoms: _306  and  _308
REMARK  130  A    between atoms: _308  and  _309
REMARK  131  A    between atoms: _308  and  _311
REMARK  132  A    between atoms: _311  and  _312
REMARK  133  A    between atoms: _315  and  _317
REMARK  134  A    between atoms: _317  and  _318
REMARK  135  A    between atoms: _317  and  _320
REMARK  136  A    between atoms: _320  and  _321
REMARK  137  A    between atoms: _321  and  _322
REMARK  138  A    between atoms: _327  and  _329
REMARK  139  A    between atoms: _329  and  _330
REMARK  140  A    between atoms: _329  and  _332
REMARK  141  A    between atoms: _332  and  _333
REMARK  142  A    between atoms: _333  and  _334
REMARK  143  A    between atoms: _339  and  _341
REMARK  144  A    between atoms: _341  and  _342
REMARK  145  A    between atoms: _344  and  _346
REMARK  146  A    between atoms: _346  and  _347
REMARK  147  A    between atoms: _346  and  _349
REMARK  148  A    between atoms: _349  and  _350
REMARK  149  A    between atoms: _352  and  _354
REMARK  150  A    between atoms: _354  and  _355
REMARK  151  A    between atoms: _354  and  _357
REMARK  152  A    between atoms: _357  and  _358
REMARK  153  A    between atoms: _358  and  _359
REMARK  154  A    between atoms: _359  and  _360
REMARK  155  A    between atoms: _369  and  _371
REMARK  156  A    between atoms: _371  and  _372
REMARK  157  A    between atoms: _375  and  _377
REMARK  158  A    between atoms: _377  and  _378
REMARK  159  A    between atoms: _377  and  _380
REMARK  160  A    between atoms: _383  and  _385
REMARK  161  A    between atoms: _385  and  _386
REMARK  162  A    between atoms: _388  and  _390
REMARK  163  A    between atoms: _390  and  _391
REMARK  164  A    between atoms: _393  and  _395
REMARK  165  A    between atoms: _395  and  _396
REMARK  166  A    between atoms: _395  and  _398
REMARK  167  A    between atoms: _398  and  _399
REMARK  168  A    between atoms: _402  and  _404
REMARK  169  A    between atoms: _404  and  _405
REMARK  170  A    between atoms: _408  and  _410
REMARK  171  A    between atoms: _410  and  _411
REMARK  172  A    between atoms: _410  and  _413
REMARK  173  A    between atoms: _416  and  _418
REMARK  174  A    between atoms: _418  and  _419
REMARK  175  A    between atoms: _421  and  _423
REMARK  176  A    between atoms: _423  and  _424
REMARK  177  A    between atoms: _423  and  _426
REMARK  178  A    between atoms: _426  and  _427
REMARK  179  A    between atoms: _427  and  _428
REMARK  180  A    between atoms: _431  and  _433
REMARK  181  A    between atoms: _433  and  _434
REMARK  182  A    between atoms: _433  and  _436
REMARK  183  A    between atoms: _436  and  _437
REMARK  184  A    between atoms: _442  and  _443
REMARK  185  A    between atoms: _445  and  _447
REMARK  186  A    between atoms: _447  and  _448
REMARK  187  A    between atoms: _447  and  _450
REMARK  188  A    between atoms: _450  and  _451
REMARK  189  A    between atoms: _454  and  _456
REMARK  190  A    between atoms: _456  and  _457
REMARK  191  A    between atoms: _456  and  _459
REMARK  192  A    between atoms: _459  and  _460
REMARK  193  A    between atoms: _460  and  _461
REMARK  194  A    between atoms: _463  and  _465
REMARK  195  A    between atoms: _465  and  _466
REMARK  196  A    between atoms: _468  and  _470
REMARK  197  A    between atoms: _470  and  _471
REMARK  198  A    between atoms: _470  and  _473
REMARK  199  A    between atoms: _476  and  _478
REMARK  200  A    between atoms: _478  and  _479
REMARK  201  A    between atoms: _481  and  _483
REMARK  202  A    between atoms: _483  and  _484
REMARK  203  A    between atoms: _483  and  _486
REMARK  204  A    between atoms: _486  and  _487
REMARK  205  A    between atoms: _493  and  _495
REMARK  206  A    between atoms: _495  and  _496
REMARK  207  A    between atoms: _495  and  _498
REMARK  208  A    between atoms: _498  and  _499
REMARK  209  A    between atoms: _502  and  _504
REMARK  210  A    between atoms: _504  and  _505
REMARK  211  A    between atoms: _504  and  _507
REMARK  212  A    between atoms: _509  and  _511
REMARK  213  A    between atoms: _511  and  _512
REMARK  214  A    between atoms: _511  and  _514
REMARK  215  A    between atoms: _517  and  _519
REMARK  216  A    between atoms: _519  and  _520
REMARK  217  A    between atoms: _519  and  _522
REMARK  218  A    between atoms: _522  and  _523
REMARK  219  A    between atoms: _526  and  _528
REMARK  220  A    between atoms: _528  and  _529
REMARK  221  A    between atoms: _528  and  _531
REMARK  222  A    between atoms: _531  and  _532
REMARK  223  A    between atoms: _532  and  _533
REMARK  224  A    between atoms: _533  and  _534
REMARK                            x       y       z     vdW  Elec       q    Type
REMARK                         _______ _______ _______ _____ _____    ______ ____
ROOT
ATOM      1  O   HOH     1      13.112  18.138  77.769  0.00  0.00    +0.000 OA
ENDROOT
TORSDOF 0
REMARK  Name = ../refined-set-2016/4lbu/4lbu_pocket.pdb
REMARK  224 active torsions:
REMARK  status: ('A' for Active; 'I' for Inactive)
REMARK    1  A    between atoms: _1  and  _3
REMARK    2  A    between atoms: _3  and  _4
REMARK    3  A    between atoms: _3  and  _6
REMARK    4  A    between atoms: _6  and  _7
REMARK    5  A    between atoms: _7  and  _8
REMARK    6  A    between atoms: _11  and  _12
REMARK    7  A    between atoms: _17  and  _19
REMARK    8  A    between atoms: _19  and  _20
REMARK    9  A    between atoms: _19  and  _22
REMARK   10  A    between atoms: _25  and  _27
REMARK   11  A    between atoms: _27  and  _28
REMARK   12  A    between atoms: _30  and  _32
REMARK   13  A    between atoms: _32  and  _33
REMARK   14  A    between atoms: _32  and  _35
REMARK   15  A    between atoms: _35  and  _36
REMARK   16  A    between atoms: _39  and  _41
REMARK   17  A    between atoms: _41  and  _42
REMARK   18  A    between atoms: _45  and  _47
REMARK   19  A    between atoms: _47  and  _48
REMARK   20  A    between atoms: _51  and  _53
REMARK   21  A    between atoms: _53  and  _54
REMARK   22  A    between atoms: _53  and  _56
REMARK   23  A    between atoms: _56  and  _57
REMARK   24  A    between atoms: _60  and  _62
REMARK   25  A    between atoms: _62  and  _63
REMARK   26  A    between atoms: _62  and  _65
REMARK   27  A    between atoms: _65  and  _66
REMARK   28  A    between atoms: _69  and  _71
REMARK   29  A    between atoms: _71  and  _72
REMARK   30  A    between atoms: _74  and  _76
REMARK   31  A    between atoms: _76  and  _77
REMARK   32  A    between atoms: _76  and  _79
REMARK   33  A    between atoms: _79  and  _80
REMARK   34  A    between atoms: _85  and  _87
REMARK   35  A    between atoms: _87  and  _88
REMARK   36  A    between atoms: _87  and  _90
REMARK   37  A    between atoms: _90  and  _91
REMARK   38  A    between atoms: _94  and  _96
REMARK   39  A    between atoms: _96  and  _97
REMARK   40  A    between atoms: _96  and  _99
REMARK   41  A    between atoms: _99  and  _100
REMARK   42  A    between atoms: _105  and  _106
REMARK   43  A    between atoms: _108  and  _110
REMARK   44  A    between atoms: _110  and  _111
REMARK   45  A    between atoms: _110  and  _113
REMARK   46  A    between atoms: _113  and  _114
REMARK   47  A    between atoms: _119  and  _121
REMARK   48  A    between atoms: _121  and  _122
REMARK   49  A    between atoms: _121  and  _124
REMARK   50  A    between atoms: _124  and  _125
REMARK   51  A    between atoms: _128  and  _130
REMARK   52  A    between atoms: _130  and  _131
REMARK   53  A    between atoms: _130  and  _133
REMARK   54  A    between atoms: _133  and  _134
REMARK   55  A    between atoms: _137  and  _139
REMARK   56  A    between atoms: _139  and  _140
REMARK   57  A    between atoms: _139  and  _142
REMARK   58  A    between atoms: _142  and  _143
REMARK   59  A    between atoms: _146  and  _148
REMARK   60  A    between atoms: _148  and  _149
REMARK   61  A    between atoms: _148  and  _151
REMARK   62  A    between atoms: _151  and  _152
REMARK   63  A    between atoms: _155  and  _157
REMARK   64  A    between atoms: _157  and  _158
REMARK   65  A    between atoms: _157  and  _160
REMARK   66  A    between atoms: _160  and  _161
REMARK   67  A    between atoms: _163  and  _165
REMARK   68  A    between atoms: _165  and  _166
REMARK   69  A    between atoms: _168  and  _170
REMARK   70  A    between atoms: _170  and  _171
REMARK   71  A    between atoms: _173  and  _175
REMARK   72  A    between atoms: _175  and  _176
REMARK   73  A    between atoms: _175  and  _178
REMARK   74  A    between atoms: _178  and  _179
REMARK   75  A    between atoms: _184  and  _185
REMARK   76  A    between atoms: _187  and  _189
REMARK   77  A    between atoms: _189  and  _190
REMARK   78  A    between atoms: _189  and  _192
REMARK   79  A    between atoms: _192  and  _193
REMARK   80  A    between atoms: _193  and  _194
REMARK   81  A    between atoms: _199  and  _201
REMARK   82  A    between atoms: _201  and  _202
REMARK   83  A    between atoms: _201  and  _204
REMARK   84  A    between atoms: _207  and  _209
REMARK   85  A    between atoms: _209  and  _210
REMARK   86  A    between atoms: _209  and  _212
REMARK   87  A    between atoms: _212  and  _213
REMARK   88  A    between atoms: _213  and  _214
REMARK   89  A    between atoms: _216  and  _218
REMARK   90  A    between atoms: _218  and  _219
REMARK   91  A    between atoms: _218  and  _221
REMARK   92  A    between atoms: _221  and  _222
REMARK   93  A    between atoms: _224  and  _226
REMARK   94  A    between atoms: _226  and  _227
REMARK   95  A    between atoms: _226  and  _229
REMARK   96  A    between atoms: _229  and  _230
REMARK   97  A    between atoms: _230  and  _231
REMARK   98  A    between atoms: _236  and  _238
REMARK   99  A    between atoms: _238  and  _239
REMARK  100  A    between atoms: _238  and  _241
REMARK  101  A    between atoms: _241  and  _242
REMARK  102  A    between atoms: _242  and  _243
REMARK  103  A    between atoms: _245  and  _247
REMARK  104  A    between atoms: _247  and  _248
REMARK  105  A    between atoms: _251  and  _253
REMARK  106  A    between atoms: _253  and  _254
REMARK  107  A    between atoms: _253  and  _256
REMARK  108  A    between atoms: _256  and  _257
REMARK  109  A    between atoms: _263  and  _265
REMARK  110  A    between atoms: _265  and  _266
REMARK  111  A    between atoms: _265  and  _268
REMARK  112  A    between atoms: _268  and  _269
REMARK  113  A    between atoms: _272  and  _274
REMARK  114  A    between atoms: _274  and  _275
REMARK  115  A    between atoms: _274  and  _277
REMARK  116  A    between atoms: _277  and  _278
REMARK  117  A    between atoms: _278  and  _279
REMARK  118  A    between atoms: _282  and  _284
REMARK  119  A    between atoms: _284  and  _285
REMARK  120  A    between atoms: _284  and  _287
REMARK  121  A    between atoms: _289  and  _291
REMARK  122  A    between atoms: _291  and  _292
REMARK  123  A    between atoms: _291  and  _294
REMARK  124  A    between atoms: _294  and  _295
REMARK  125  A    between atoms: _298  and  _300
REMARK  126  A    between atoms: _300  and  _301
REMARK  127  A    between atoms: _300  and  _303
REMARK  128  A    between atoms: _303  and  _304
REMARK  129  A    between atoms: _306  and  _308
REMARK  130  A    between atoms: _308  and  _309
REMARK  131  A    between atoms: _308  and  _311
REMARK  132  A    between atoms: _311  and  _312
REMARK  133  A    between atoms: _315  and  _317
REMARK  134  A    between atoms: _317  and  _318
REMARK  135  A    between atoms: _317  and  _320
REMARK  136  A    between atoms: _320  and  _321
REMARK  137  A    between atoms: _321  and  _322
REMARK  138  A    between atoms: _327  and  _329
REMARK  139  A    between atoms: _329  and  _330
REMARK  140  A    between atoms: _329  and  _332
REMARK  141  A    between atoms: _332  and  _333
REMARK  142  A    between atoms: _333  and  _334
REMARK  143  A    between atoms: _339  and  _341
REMARK  144  A    between atoms: _341  and  _342
REMARK  145  A    between atoms: _344  and  _346
REMARK  146  A    between atoms: _346  and  _347
REMARK  147  A    between atoms: _346  and  _349
REMARK  148  A    between atoms: _349  and  _350
REMARK  149  A    between atoms: _352  and  _354
REMARK  150  A    between atoms: _354  and  _355
REMARK  151  A    between atoms: _354  and  _357
REMARK  152  A    between atoms: _357  and  _358
REMARK  153  A    between atoms: _358  and  _359
REMARK  154  A    between atoms: _359  and  _360
REMARK  155  A    between atoms: _369  and  _371
REMARK  156  A    between atoms: _371  and  _372
REMARK  157  A    between atoms: _375  and  _377
REMARK  158  A    between atoms: _377  and  _378
REMARK  159  A    between atoms: _377  and  _380
REMARK  160  A    between atoms: _383  and  _385
REMARK  161  A    between atoms: _385  and  _386
REMARK  162  A    between atoms: _388  and  _390
REMARK  163  A    between atoms: _390  and  _391
REMARK  164  A    between atoms: _393  and  _395
REMARK  165  A    between atoms: _395  and  _396
REMARK  166  A    between atoms: _395  and  _398
REMARK  167  A    between atoms: _398  and  _399
REMARK  168  A    between atoms: _402  and  _404
REMARK  169  A    between atoms: _404  and  _405
REMARK  170  A    between atoms: _408  and  _410
REMARK  171  A    between atoms: _410  and  _411
REMARK  172  A    between atoms: _410  and  _413
REMARK  173  A    between atoms: _416  and  _418
REMARK  174  A    between atoms: _418  and  _419
REMARK  175  A    between atoms: _421  and  _423
REMARK  176  A    between atoms: _423  and  _424
REMARK  177  A    between atoms: _423  and  _426
REMARK  178  A    between atoms: _426  and  _427
REMARK  179  A    between atoms: _427  and  _428
REMARK  180  A    between atoms: _431  and  _433
REMARK  181  A    between atoms: _433  and  _434
REMARK  182  A    between atoms: _433  and  _436
REMARK  183  A    between atoms: _436  and  _437
REMARK  184  A    between atoms: _442  and  _443
REMARK  185  A    between atoms: _445  and  _447
REMARK  186  A    between atoms: _447  and  _448
REMARK  187  A    between atoms: _447  and  _450
REMARK  188  A    between atoms: _450  and  _451
REMARK  189  A    between atoms: _454  and  _456
REMARK  190  A    between atoms: _456  and  _457
REMARK  191  A    between atoms: _456  and  _459
REMARK  192  A    between atoms: _459  and  _460
REMARK  193  A    between atoms: _460  and  _461
REMARK  194  A    between atoms: _463  and  _465
REMARK  195  A    between atoms: _465  and  _466
REMARK  196  A    between atoms: _468  and  _470
REMARK  197  A    between atoms: _470  and  _471
REMARK  198  A    between atoms: _470  and  _473
REMARK  199  A    between atoms: _476  and  _478
REMARK  200  A    between atoms: _478  and  _479
REMARK  201  A    between atoms: _481  and  _483
REMARK  202  A    between atoms: _483  and  _484
REMARK  203  A    between atoms: _483  and  _486
REMARK  204  A    between atoms: _486  and  _487
REMARK  205  A    between atoms: _493  and  _495
REMARK  206  A    between atoms: _495  and  _496
REMARK  207  A    between atoms: _495  and  _498
REMARK  208  A    between atoms: _498  and  _499
REMARK  209  A    between atoms: _502  and  _504
REMARK  210  A    between atoms: _504  and  _505
REMARK  211  A    between atoms: _504  and  _507
REMARK  212  A    between atoms: _509  and  _511
REMARK  213  A    between atoms: _511  and  _512
REMARK  214  A    between atoms: _511  and  _514
REMARK  215  A    between atoms: _517  and  _519
REMARK  216  A    between atoms: _519  and  _520
REMARK  217  A    between atoms: _519  and  _522
REMARK  218  A    between atoms: _522  and  _523
REMARK  219  A    between atoms: _526  and  _528
REMARK  220  A    between atoms: _528  and  _529
REMARK  221  A    between atoms: _528  and  _531
REMARK  222  A    between atoms: _531  and  _532
REMARK  223  A    between atoms: _532  and  _533
REMARK  224  A    between atoms: _533  and  _534
REMARK                            x       y       z     vdW  Elec       q    Type
REMARK                         _______ _______ _______ _____ _____    ______ ____
ROOT
ATOM      1  O   HOH     1      12.777  16.782  82.156  0.00  0.00    +0.000 OA
ENDROOT
TORSDOF 0
REMARK  Name = ../refined-set-2016/4lbu/4lbu_pocket.pdb
REMARK  224 active torsions:
REMARK  status: ('A' for Active; 'I' for Inactive)
REMARK    1  A    between atoms: _1  and  _3
REMARK    2  A    between atoms: _3  and  _4
REMARK    3  A    between atoms: _3  and  _6
REMARK    4  A    between atoms: _6  and  _7
REMARK    5  A    between atoms: _7  and  _8
REMARK    6  A    between atoms: _11  and  _12
REMARK    7  A    between atoms: _17  and  _19
REMARK    8  A    between atoms: _19  and  _20
REMARK    9  A    between atoms: _19  and  _22
REMARK   10  A    between atoms: _25  and  _27
REMARK   11  A    between atoms: _27  and  _28
REMARK   12  A    between atoms: _30  and  _32
REMARK   13  A    between atoms: _32  and  _33
REMARK   14  A    between atoms: _32  and  _35
REMARK   15  A    between atoms: _35  and  _36
REMARK   16  A    between atoms: _39  and  _41
REMARK   17  A    between atoms: _41  and  _42
REMARK   18  A    between atoms: _45  and  _47
REMARK   19  A    between atoms: _47  and  _48
REMARK   20  A    between atoms: _51  and  _53
REMARK   21  A    between atoms: _53  and  _54
REMARK   22  A    between atoms: _53  and  _56
REMARK   23  A    between atoms: _56  and  _57
REMARK   24  A    between atoms: _60  and  _62
REMARK   25  A    between atoms: _62  and  _63
REMARK   26  A    between atoms: _62  and  _65
REMARK   27  A    between atoms: _65  and  _66
REMARK   28  A    between atoms: _69  and  _71
REMARK   29  A    between atoms: _71  and  _72
REMARK   30  A    between atoms: _74  and  _76
REMARK   31  A    between atoms: _76  and  _77
REMARK   32  A    between atoms: _76  and  _79
REMARK   33  A    between atoms: _79  and  _80
REMARK   34  A    between atoms: _85  and  _87
REMARK   35  A    between atoms: _87  and  _88
REMARK   36  A    between atoms: _87  and  _90
REMARK   37  A    between atoms: _90  and  _91
REMARK   38  A    between atoms: _94  and  _96
REMARK   39  A    between atoms: _96  and  _97
REMARK   40  A    between atoms: _96  and  _99
REMARK   41  A    between atoms: _99  and  _100
REMARK   42  A    between atoms: _105  and  _106
REMARK   43  A    between atoms: _108  and  _110
REMARK   44  A    between atoms: _110  and  _111
REMARK   45  A    between atoms: _110  and  _113
REMARK   46  A    between atoms: _113  and  _114
REMARK   47  A    between atoms: _119  and  _121
REMARK   48  A    between atoms: _121  and  _122
REMARK   49  A    between atoms: _121  and  _124
REMARK   50  A    between atoms: _124  and  _125
REMARK   51  A    between atoms: _128  and  _130
REMARK   52  A    between atoms: _130  and  _131
REMARK   53  A    between atoms: _130  and  _133
REMARK   54  A    between atoms: _133  and  _134
REMARK   55  A    between atoms: _137  and  _139
REMARK   56  A    between atoms: _139  and  _140
REMARK   57  A    between atoms: _139  and  _142
REMARK   58  A    between atoms: _142  and  _143
REMARK   59  A    between atoms: _146  and  _148
REMARK   60  A    between atoms: _148  and  _149
REMARK   61  A    between atoms: _148  and  _151
REMARK   62  A    between atoms: _151  and  _152
REMARK   63  A    between atoms: _155  and  _157
REMARK   64  A    between atoms: _157  and  _158
REMARK   65  A    between atoms: _157  and  _160
REMARK   66  A    between atoms: _160  and  _161
REMARK   67  A    between atoms: _163  and  _165
REMARK   68  A    between atoms: _165  and  _166
REMARK   69  A    between atoms: _168  and  _170
REMARK   70  A    between atoms: _170  and  _171
REMARK   71  A    between atoms: _173  and  _175
REMARK   72  A    between atoms: _175  and  _176
REMARK   73  A    between atoms: _175  and  _178
REMARK   74  A    between atoms: _178  and  _179
REMARK   75  A    between atoms: _184  and  _185
REMARK   76  A    between atoms: _187  and  _189
REMARK   77  A    between atoms: _189  and  _190
REMARK   78  A    between atoms: _189  and  _192
REMARK   79  A    between atoms: _192  and  _193
REMARK   80  A    between atoms: _193  and  _194
REMARK   81  A    between atoms: _199  and  _201
REMARK   82  A    between atoms: _201  and  _202
REMARK   83  A    between atoms: _201  and  _204
REMARK   84  A    between atoms: _207  and  _209
REMARK   85  A    between atoms: _209  and  _210
REMARK   86  A    between atoms: _209  and  _212
REMARK   87  A    between atoms: _212  and  _213
REMARK   88  A    between atoms: _213  and  _214
REMARK   89  A    between atoms: _216  and  _218
REMARK   90  A    between atoms: _218  and  _219
REMARK   91  A    between atoms: _218  and  _221
REMARK   92  A    between atoms: _221  and  _222
REMARK   93  A    between atoms: _224  and  _226
REMARK   94  A    between atoms: _226  and  _227
REMARK   95  A    between atoms: _226  and  _229
REMARK   96  A    between atoms: _229  and  _230
REMARK   97  A    between atoms: _230  and  _231
REMARK   98  A    between atoms: _236  and  _238
REMARK   99  A    between atoms: _238  and  _239
REMARK  100  A    between atoms: _238  and  _241
REMARK  101  A    between atoms: _241  and  _242
REMARK  102  A    between atoms: _242  and  _243
REMARK  103  A    between atoms: _245  and  _247
REMARK  104  A    between atoms: _247  and  _248
REMARK  105  A    between atoms: _251  and  _253
REMARK  106  A    between atoms: _253  and  _254
REMARK  107  A    between atoms: _253  and  _256
REMARK  108  A    between atoms: _256  and  _257
REMARK  109  A    between atoms: _263  and  _265
REMARK  110  A    between atoms: _265  and  _266
REMARK  111  A    between atoms: _265  and  _268
REMARK  112  A    between atoms: _268  and  _269
REMARK  113  A    between atoms: _272  and  _274
REMARK  114  A    between atoms: _274  and  _275
REMARK  115  A    between atoms: _274  and  _277
REMARK  116  A    between atoms: _277  and  _278
REMARK  117  A    between atoms: _278  and  _279
REMARK  118  A    between atoms: _282  and  _284
REMARK  119  A    between atoms: _284  and  _285
REMARK  120  A    between atoms: _284  and  _287
REMARK  121  A    between atoms: _289  and  _291
REMARK  122  A    between atoms: _291  and  _292
REMARK  123  A    between atoms: _291  and  _294
REMARK  124  A    between atoms: _294  and  _295
REMARK  125  A    between atoms: _298  and  _300
REMARK  126  A    between atoms: _300  and  _301
REMARK  127  A    between atoms: _300  and  _303
REMARK  128  A    between atoms: _303  and  _304
REMARK  129  A    between atoms: _306  and  _308
REMARK  130  A    between atoms: _308  and  _309
REMARK  131  A    between atoms: _308  and  _311
REMARK  132  A    between atoms: _311  and  _312
REMARK  133  A    between atoms: _315  and  _317
REMARK  134  A    between atoms: _317  and  _318
REMARK  135  A    between atoms: _317  and  _320
REMARK  136  A    between atoms: _320  and  _321
REMARK  137  A    between atoms: _321  and  _322
REMARK  138  A    between atoms: _327  and  _329
REMARK  139  A    between atoms: _329  and  _330
REMARK  140  A    between atoms: _329  and  _332
REMARK  141  A    between atoms: _332  and  _333
REMARK  142  A    between atoms: _333  and  _334
REMARK  143  A    between atoms: _339  and  _341
REMARK  144  A    between atoms: _341  and  _342
REMARK  145  A    between atoms: _344  and  _346
REMARK  146  A    between atoms: _346  and  _347
REMARK  147  A    between atoms: _346  and  _349
REMARK  148  A    between atoms: _349  and  _350
REMARK  149  A    between atoms: _352  and  _354
REMARK  150  A    between atoms: _354  and  _355
REMARK  151  A    between atoms: _354  and  _357
REMARK  152  A    between atoms: _357  and  _358
REMARK  153  A    between atoms: _358  and  _359
REMARK  154  A    between atoms: _359  and  _360
REMARK  155  A    between atoms: _369  and  _371
REMARK  156  A    between atoms: _371  and  _372
REMARK  157  A    between atoms: _375  and  _377
REMARK  158  A    between atoms: _377  and  _378
REMARK  159  A    between atoms: _377  and  _380
REMARK  160  A    between atoms: _383  and  _385
REMARK  161  A    between atoms: _385  and  _386
REMARK  162  A    between atoms: _388  and  _390
REMARK  163  A    between atoms: _390  and  _391
REMARK  164  A    between atoms: _393  and  _395
REMARK  165  A    between atoms: _395  and  _396
REMARK  166  A    between atoms: _395  and  _398
REMARK  167  A    between atoms: _398  and  _399
REMARK  168  A    between atoms: _402  and  _404
REMARK  169  A    between atoms: _404  and  _405
REMARK  170  A    between atoms: _408  and  _410
REMARK  171  A    between atoms: _410  and  _411
REMARK  172  A    between atoms: _410  and  _413
REMARK  173  A    between atoms: _416  and  _418
REMARK  174  A    between atoms: _418  and  _419
REMARK  175  A    between atoms: _421  and  _423
REMARK  176  A    between atoms: _423  and  _424
REMARK  177  A    between atoms: _423  and  _426
REMARK  178  A    between atoms: _426  and  _427
REMARK  179  A    between atoms: _427  and  _428
REMARK  180  A    between atoms: _431  and  _433
REMARK  181  A    between atoms: _433  and  _434
REMARK  182  A    between atoms: _433  and  _436
REMARK  183  A    between atoms: _436  and  _437
REMARK  184  A    between atoms: _442  and  _443
REMARK  185  A    between atoms: _445  and  _447
REMARK  186  A    between atoms: _447  and  _448
REMARK  187  A    between atoms: _447  and  _450
REMARK  188  A    between atoms: _450  and  _451
REMARK  189  A    between atoms: _454  and  _456
REMARK  190  A    between atoms: _456  and  _457
REMARK  191  A    between atoms: _456  and  _459
REMARK  192  A    between atoms: _459  and  _460
REMARK  193  A    between atoms: _460  and  _461
REMARK  194  A    between atoms: _463  and  _465
REMARK  195  A    between atoms: _465  and  _466
REMARK  196  A    between atoms: _468  and  _470
REMARK  197  A    between atoms: _470  and  _471
REMARK  198  A    between atoms: _470  and  _473
REMARK  199  A    between atoms: _476  and  _478
REMARK  200  A    between atoms: _478  and  _479
REMARK  201  A    between atoms: _481  and  _483
REMARK  202  A    between atoms: _483  and  _484
REMARK  203  A    between atoms: _483  and  _486
REMARK  204  A    between atoms: _486  and  _487
REMARK  205  A    between atoms: _493  and  _495
REMARK  206  A    between atoms: _495  and  _496
REMARK  207  A    between atoms: _495  and  _498
REMARK  208  A    between atoms: _498  and  _499
REMARK  209  A    between atoms: _502  and  _504
REMARK  210  A    between atoms: _504  and  _505
REMARK  211  A    between atoms: _504  and  _507
REMARK  212  A    between atoms: _509  and  _511
REMARK  213  A    between atoms: _511  and  _512
REMARK  214  A    between atoms: _511  and  _514
REMARK  215  A    between atoms: _517  and  _519
REMARK  216  A    between atoms: _519  and  _520
REMARK  217  A    between atoms: _519  and  _522
REMARK  218  A    between atoms: _522  and  _523
REMARK  219  A    between atoms: _526  and  _528
REMARK  220  A    between atoms: _528  and  _529
REMARK  221  A    between atoms: _528  and  _531
REMARK  222  A    between atoms: _531  and  _532
REMARK  223  A    between atoms: _532  and  _533
REMARK  224  A    between atoms: _533  and  _534
REMARK                            x       y       z     vdW  Elec       q    Type
REMARK                         _______ _______ _______ _____ _____    ______ ____
ROOT
ATOM      1  O   HOH     1      10.741  21.878  85.273  0.00  0.00    +0.000 OA
ENDROOT
TORSDOF 0
REMARK  Name = ../refined-set-2016/4lbu/4lbu_pocket.pdb
REMARK  224 active torsions:
REMARK  status: ('A' for Active; 'I' for Inactive)
REMARK    1  A    between atoms: _1  and  _3
REMARK    2  A    between atoms: _3  and  _4
REMARK    3  A    between atoms: _3  and  _6
REMARK    4  A    between atoms: _6  and  _7
REMARK    5  A    between atoms: _7  and  _8
REMARK    6  A    between atoms: _11  and  _12
REMARK    7  A    between atoms: _17  and  _19
REMARK    8  A    between atoms: _19  and  _20
REMARK    9  A    between atoms: _19  and  _22
REMARK   10  A    between atoms: _25  and  _27
REMARK   11  A    between atoms: _27  and  _28
REMARK   12  A    between atoms: _30  and  _32
REMARK   13  A    between atoms: _32  and  _33
REMARK   14  A    between atoms: _32  and  _35
REMARK   15  A    between atoms: _35  and  _36
REMARK   16  A    between atoms: _39  and  _41
REMARK   17  A    between atoms: _41  and  _42
REMARK   18  A    between atoms: _45  and  _47
REMARK   19  A    between atoms: _47  and  _48
REMARK   20  A    between atoms: _51  and  _53
REMARK   21  A    between atoms: _53  and  _54
REMARK   22  A    between atoms: _53  and  _56
REMARK   23  A    between atoms: _56  and  _57
REMARK   24  A    between atoms: _60  and  _62
REMARK   25  A    between atoms: _62  and  _63
REMARK   26  A    between atoms: _62  and  _65
REMARK   27  A    between atoms: _65  and  _66
REMARK   28  A    between atoms: _69  and  _71
REMARK   29  A    between atoms: _71  and  _72
REMARK   30  A    between atoms: _74  and  _76
REMARK   31  A    between atoms: _76  and  _77
REMARK   32  A    between atoms: _76  and  _79
REMARK   33  A    between atoms: _79  and  _80
REMARK   34  A    between atoms: _85  and  _87
REMARK   35  A    between atoms: _87  and  _88
REMARK   36  A    between atoms: _87  and  _90
REMARK   37  A    between atoms: _90  and  _91
REMARK   38  A    between atoms: _94  and  _96
REMARK   39  A    between atoms: _96  and  _97
REMARK   40  A    between atoms: _96  and  _99
REMARK   41  A    between atoms: _99  and  _100
REMARK   42  A    between atoms: _105  and  _106
REMARK   43  A    between atoms: _108  and  _110
REMARK   44  A    between atoms: _110  and  _111
REMARK   45  A    between atoms: _110  and  _113
REMARK   46  A    between atoms: _113  and  _114
REMARK   47  A    between atoms: _119  and  _121
REMARK   48  A    between atoms: _121  and  _122
REMARK   49  A    between atoms: _121  and  _124
REMARK   50  A    between atoms: _124  and  _125
REMARK   51  A    between atoms: _128  and  _130
REMARK   52  A    between atoms: _130  and  _131
REMARK   53  A    between atoms: _130  and  _133
REMARK   54  A    between atoms: _133  and  _134
REMARK   55  A    between atoms: _137  and  _139
REMARK   56  A    between atoms: _139  and  _140
REMARK   57  A    between atoms: _139  and  _142
REMARK   58  A    between atoms: _142  and  _143
REMARK   59  A    between atoms: _146  and  _148
REMARK   60  A    between atoms: _148  and  _149
REMARK   61  A    between atoms: _148  and  _151
REMARK   62  A    between atoms: _151  and  _152
REMARK   63  A    between atoms: _155  and  _157
REMARK   64  A    between atoms: _157  and  _158
REMARK   65  A    between atoms: _157  and  _160
REMARK   66  A    between atoms: _160  and  _161
REMARK   67  A    between atoms: _163  and  _165
REMARK   68  A    between atoms: _165  and  _166
REMARK   69  A    between atoms: _168  and  _170
REMARK   70  A    between atoms: _170  and  _171
REMARK   71  A    between atoms: _173  and  _175
REMARK   72  A    between atoms: _175  and  _176
REMARK   73  A    between atoms: _175  and  _178
REMARK   74  A    between atoms: _178  and  _179
REMARK   75  A    between atoms: _184  and  _185
REMARK   76  A    between atoms: _187  and  _189
REMARK   77  A    between atoms: _189  and  _190
REMARK   78  A    between atoms: _189  and  _192
REMARK   79  A    between atoms: _192  and  _193
REMARK   80  A    between atoms: _193  and  _194
REMARK   81  A    between atoms: _199  and  _201
REMARK   82  A    between atoms: _201  and  _202
REMARK   83  A    between atoms: _201  and  _204
REMARK   84  A    between atoms: _207  and  _209
REMARK   85  A    between atoms: _209  and  _210
REMARK   86  A    between atoms: _209  and  _212
REMARK   87  A    between atoms: _212  and  _213
REMARK   88  A    between atoms: _213  and  _214
REMARK   89  A    between atoms: _216  and  _218
REMARK   90  A    between atoms: _218  and  _219
REMARK   91  A    between atoms: _218  and  _221
REMARK   92  A    between atoms: _221  and  _222
REMARK   93  A    between atoms: _224  and  _226
REMARK   94  A    between atoms: _226  and  _227
REMARK   95  A    between atoms: _226  and  _229
REMARK   96  A    between atoms: _229  and  _230
REMARK   97  A    between atoms: _230  and  _231
REMARK   98  A    between atoms: _236  and  _238
REMARK   99  A    between atoms: _238  and  _239
REMARK  100  A    between atoms: _238  and  _241
REMARK  101  A    between atoms: _241  and  _242
REMARK  102  A    between atoms: _242  and  _243
REMARK  103  A    between atoms: _245  and  _247
REMARK  104  A    between atoms: _247  and  _248
REMARK  105  A    between atoms: _251  and  _253
REMARK  106  A    between atoms: _253  and  _254
REMARK  107  A    between atoms: _253  and  _256
REMARK  108  A    between atoms: _256  and  _257
REMARK  109  A    between atoms: _263  and  _265
REMARK  110  A    between atoms: _265  and  _266
REMARK  111  A    between atoms: _265  and  _268
REMARK  112  A    between atoms: _268  and  _269
REMARK  113  A    between atoms: _272  and  _274
REMARK  114  A    between atoms: _274  and  _275
REMARK  115  A    between atoms: _274  and  _277
REMARK  116  A    between atoms: _277  and  _278
REMARK  117  A    between atoms: _278  and  _279
REMARK  118  A    between atoms: _282  and  _284
REMARK  119  A    between atoms: _284  and  _285
REMARK  120  A    between atoms: _284  and  _287
REMARK  121  A    between atoms: _289  and  _291
REMARK  122  A    between atoms: _291  and  _292
REMARK  123  A    between atoms: _291  and  _294
REMARK  124  A    between atoms: _294  and  _295
REMARK  125  A    between atoms: _298  and  _300
REMARK  126  A    between atoms: _300  and  _301
REMARK  127  A    between atoms: _300  and  _303
REMARK  128  A    between atoms: _303  and  _304
REMARK  129  A    between atoms: _306  and  _308
REMARK  130  A    between atoms: _308  and  _309
REMARK  131  A    between atoms: _308  and  _311
REMARK  132  A    between atoms: _311  and  _312
REMARK  133  A    between atoms: _315  and  _317
REMARK  134  A    between atoms: _317  and  _318
REMARK  135  A    between atoms: _317  and  _320
REMARK  136  A    between atoms: _320  and  _321
REMARK  137  A    between atoms: _321  and  _322
REMARK  138  A    between atoms: _327  and  _329
REMARK  139  A    between atoms: _329  and  _330
REMARK  140  A    between atoms: _329  and  _332
REMARK  141  A    between atoms: _332  and  _333
REMARK  142  A    between atoms: _333  and  _334
REMARK  143  A    between atoms: _339  and  _341
REMARK  144  A    between atoms: _341  and  _342
REMARK  145  A    between atoms: _344  and  _346
REMARK  146  A    between atoms: _346  and  _347
REMARK  147  A    between atoms: _346  and  _349
REMARK  148  A    between atoms: _349  and  _350
REMARK  149  A    between atoms: _352  and  _354
REMARK  150  A    between atoms: _354  and  _355
REMARK  151  A    between atoms: _354  and  _357
REMARK  152  A    between atoms: _357  and  _358
REMARK  153  A    between atoms: _358  and  _359
REMARK  154  A    between atoms: _359  and  _360
REMARK  155  A    between atoms: _369  and  _371
REMARK  156  A    between atoms: _371  and  _372
REMARK  157  A    between atoms: _375  and  _377
REMARK  158  A    between atoms: _377  and  _378
REMARK  159  A    between atoms: _377  and  _380
REMARK  160  A    between atoms: _383  and  _385
REMARK  161  A    between atoms: _385  and  _386
REMARK  162  A    between atoms: _388  and  _390
REMARK  163  A    between atoms: _390  and  _391
REMARK  164  A    between atoms: _393  and  _395
REMARK  165  A    between atoms: _395  and  _396
REMARK  166  A    between atoms: _395  and  _398
REMARK  167  A    between atoms: _398  and  _399
REMARK  168  A    between atoms: _402  and  _404
REMARK  169  A    between atoms: _404  and  _405
REMARK  170  A    between atoms: _408  and  _410
REMARK  171  A    between atoms: _410  and  _411
REMARK  172  A    between atoms: _410  and  _413
REMARK  173  A    between atoms: _416  and  _418
REMARK  174  A    between atoms: _418  and  _419
REMARK  175  A    between atoms: _421  and  _423
REMARK  176  A    between atoms: _423  and  _424
REMARK  177  A    between atoms: _423  and  _426
REMARK  178  A    between atoms: _426  and  _427
REMARK  179  A    between atoms: _427  and  _428
REMARK  180  A    between atoms: _431  and  _433
REMARK  181  A    between atoms: _433  and  _434
REMARK  182  A    between atoms: _433  and  _436
REMARK  183  A    between atoms: _436  and  _437
REMARK  184  A    between atoms: _442  and  _443
REMARK  185  A    between atoms: _445  and  _447
REMARK  186  A    between atoms: _447  and  _448
REMARK  187  A    between atoms: _447  and  _450
REMARK  188  A    between atoms: _450  and  _451
REMARK  189  A    between atoms: _454  and  _456
REMARK  190  A    between atoms: _456  and  _457
REMARK  191  A    between atoms: _456  and  _459
REMARK  192  A    between atoms: _459  and  _460
REMARK  193  A    between atoms: _460  and  _461
REMARK  194  A    between atoms: _463  and  _465
REMARK  195  A    between atoms: _465  and  _466
REMARK  196  A    between atoms: _468  and  _470
REMARK  197  A    between atoms: _470  and  _471
REMARK  198  A    between atoms: _470  and  _473
REMARK  199  A    between atoms: _476  and  _478
REMARK  200  A    between atoms: _478  and  _479
REMARK  201  A    between atoms: _481  and  _483
REMARK  202  A    between atoms: _483  and  _484
REMARK  203  A    between atoms: _483  and  _486
REMARK  204  A    between atoms: _486  and  _487
REMARK  205  A    between atoms: _493  and  _495
REMARK  206  A    between atoms: _495  and  _496
REMARK  207  A    between atoms: _495  and  _498
REMARK  208  A    between atoms: _498  and  _499
REMARK  209  A    between atoms: _502  and  _504
REMARK  210  A    between atoms: _504  and  _505
REMARK  211  A    between atoms: _504  and  _507
REMARK  212  A    between atoms: _509  and  _511
REMARK  213  A    between atoms: _511  and  _512
REMARK  214  A    between atoms: _511  and  _514
REMARK  215  A    between atoms: _517  and  _519
REMARK  216  A    between atoms: _519  and  _520
REMARK  217  A    between atoms: _519  and  _522
REMARK  218  A    between atoms: _522  and  _523
REMARK  219  A    between atoms: _526  and  _528
REMARK  220  A    between atoms: _528  and  _529
REMARK  221  A    between atoms: _528  and  _531
REMARK  222  A    between atoms: _531  and  _532
REMARK  223  A    between atoms: _532  and  _533
REMARK  224  A    between atoms: _533  and  _534
REMARK                            x       y       z     vdW  Elec       q    Type
REMARK                         _______ _______ _______ _____ _____    ______ ____
ROOT
ATOM      1  O   HOH     1      12.601  19.723  82.288  0.00  0.00    +0.000 OA
ENDROOT
TORSDOF 0
REMARK  Name = ../refined-set-2016/4lbu/4lbu_pocket.pdb
REMARK  224 active torsions:
REMARK  status: ('A' for Active; 'I' for Inactive)
REMARK    1  A    between atoms: _1  and  _3
REMARK    2  A    between atoms: _3  and  _4
REMARK    3  A    between atoms: _3  and  _6
REMARK    4  A    between atoms: _6  and  _7
REMARK    5  A    between atoms: _7  and  _8
REMARK    6  A    between atoms: _11  and  _12
REMARK    7  A    between atoms: _17  and  _19
REMARK    8  A    between atoms: _19  and  _20
REMARK    9  A    between atoms: _19  and  _22
REMARK   10  A    between atoms: _25  and  _27
REMARK   11  A    between atoms: _27  and  _28
REMARK   12  A    between atoms: _30  and  _32
REMARK   13  A    between atoms: _32  and  _33
REMARK   14  A    between atoms: _32  and  _35
REMARK   15  A    between atoms: _35  and  _36
REMARK   16  A    between atoms: _39  and  _41
REMARK   17  A    between atoms: _41  and  _42
REMARK   18  A    between atoms: _45  and  _47
REMARK   19  A    between atoms: _47  and  _48
REMARK   20  A    between atoms: _51  and  _53
REMARK   21  A    between atoms: _53  and  _54
REMARK   22  A    between atoms: _53  and  _56
REMARK   23  A    between atoms: _56  and  _57
REMARK   24  A    between atoms: _60  and  _62
REMARK   25  A    between atoms: _62  and  _63
REMARK   26  A    between atoms: _62  and  _65
REMARK   27  A    between atoms: _65  and  _66
REMARK   28  A    between atoms: _69  and  _71
REMARK   29  A    between atoms: _71  and  _72
REMARK   30  A    between atoms: _74  and  _76
REMARK   31  A    between atoms: _76  and  _77
REMARK   32  A    between atoms: _76  and  _79
REMARK   33  A    between atoms: _79  and  _80
REMARK   34  A    between atoms: _85  and  _87
REMARK   35  A    between atoms: _87  and  _88
REMARK   36  A    between atoms: _87  and  _90
REMARK   37  A    between atoms: _90  and  _91
REMARK   38  A    between atoms: _94  and  _96
REMARK   39  A    between atoms: _96  and  _97
REMARK   40  A    between atoms: _96  and  _99
REMARK   41  A    between atoms: _99  and  _100
REMARK   42  A    between atoms: _105  and  _106
REMARK   43  A    between atoms: _108  and  _110
REMARK   44  A    between atoms: _110  and  _111
REMARK   45  A    between atoms: _110  and  _113
REMARK   46  A    between atoms: _113  and  _114
REMARK   47  A    between atoms: _119  and  _121
REMARK   48  A    between atoms: _121  and  _122
REMARK   49  A    between atoms: _121  and  _124
REMARK   50  A    between atoms: _124  and  _125
REMARK   51  A    between atoms: _128  and  _130
REMARK   52  A    between atoms: _130  and  _131
REMARK   53  A    between atoms: _130  and  _133
REMARK   54  A    between atoms: _133  and  _134
REMARK   55  A    between atoms: _137  and  _139
REMARK   56  A    between atoms: _139  and  _140
REMARK   57  A    between atoms: _139  and  _142
REMARK   58  A    between atoms: _142  and  _143
REMARK   59  A    between atoms: _146  and  _148
REMARK   60  A    between atoms: _148  and  _149
REMARK   61  A    between atoms: _148  and  _151
REMARK   62  A    between atoms: _151  and  _152
REMARK   63  A    between atoms: _155  and  _157
REMARK   64  A    between atoms: _157  and  _158
REMARK   65  A    between atoms: _157  and  _160
REMARK   66  A    between atoms: _160  and  _161
REMARK   67  A    between atoms: _163  and  _165
REMARK   68  A    between atoms: _165  and  _166
REMARK   69  A    between atoms: _168  and  _170
REMARK   70  A    between atoms: _170  and  _171
REMARK   71  A    between atoms: _173  and  _175
REMARK   72  A    between atoms: _175  and  _176
REMARK   73  A    between atoms: _175  and  _178
REMARK   74  A    between atoms: _178  and  _179
REMARK   75  A    between atoms: _184  and  _185
REMARK   76  A    between atoms: _187  and  _189
REMARK   77  A    between atoms: _189  and  _190
REMARK   78  A    between atoms: _189  and  _192
REMARK   79  A    between atoms: _192  and  _193
REMARK   80  A    between atoms: _193  and  _194
REMARK   81  A    between atoms: _199  and  _201
REMARK   82  A    between atoms: _201  and  _202
REMARK   83  A    between atoms: _201  and  _204
REMARK   84  A    between atoms: _207  and  _209
REMARK   85  A    between atoms: _209  and  _210
REMARK   86  A    between atoms: _209  and  _212
REMARK   87  A    between atoms: _212  and  _213
REMARK   88  A    between atoms: _213  and  _214
REMARK   89  A    between atoms: _216  and  _218
REMARK   90  A    between atoms: _218  and  _219
REMARK   91  A    between atoms: _218  and  _221
REMARK   92  A    between atoms: _221  and  _222
REMARK   93  A    between atoms: _224  and  _226
REMARK   94  A    between atoms: _226  and  _227
REMARK   95  A    between atoms: _226  and  _229
REMARK   96  A    between atoms: _229  and  _230
REMARK   97  A    between atoms: _230  and  _231
REMARK   98  A    between atoms: _236  and  _238
REMARK   99  A    between atoms: _238  and  _239
REMARK  100  A    between atoms: _238  and  _241
REMARK  101  A    between atoms: _241  and  _242
REMARK  102  A    between atoms: _242  and  _243
REMARK  103  A    between atoms: _245  and  _247
REMARK  104  A    between atoms: _247  and  _248
REMARK  105  A    between atoms: _251  and  _253
REMARK  106  A    between atoms: _253  and  _254
REMARK  107  A    between atoms: _253  and  _256
REMARK  108  A    between atoms: _256  and  _257
REMARK  109  A    between atoms: _263  and  _265
REMARK  110  A    between atoms: _265  and  _266
REMARK  111  A    between atoms: _265  and  _268
REMARK  112  A    between atoms: _268  and  _269
REMARK  113  A    between atoms: _272  and  _274
REMARK  114  A    between atoms: _274  and  _275
REMARK  115  A    between atoms: _274  and  _277
REMARK  116  A    between atoms: _277  and  _278
REMARK  117  A    between atoms: _278  and  _279
REMARK  118  A    between atoms: _282  and  _284
REMARK  119  A    between atoms: _284  and  _285
REMARK  120  A    between atoms: _284  and  _287
REMARK  121  A    between atoms: _289  and  _291
REMARK  122  A    between atoms: _291  and  _292
REMARK  123  A    between atoms: _291  and  _294
REMARK  124  A    between atoms: _294  and  _295
REMARK  125  A    between atoms: _298  and  _300
REMARK  126  A    between atoms: _300  and  _301
REMARK  127  A    between atoms: _300  and  _303
REMARK  128  A    between atoms: _303  and  _304
REMARK  129  A    between atoms: _306  and  _308
REMARK  130  A    between atoms: _308  and  _309
REMARK  131  A    between atoms: _308  and  _311
REMARK  132  A    between atoms: _311  and  _312
REMARK  133  A    between atoms: _315  and  _317
REMARK  134  A    between atoms: _317  and  _318
REMARK  135  A    between atoms: _317  and  _320
REMARK  136  A    between atoms: _320  and  _321
REMARK  137  A    between atoms: _321  and  _322
REMARK  138  A    between atoms: _327  and  _329
REMARK  139  A    between atoms: _329  and  _330
REMARK  140  A    between atoms: _329  and  _332
REMARK  141  A    between atoms: _332  and  _333
REMARK  142  A    between atoms: _333  and  _334
REMARK  143  A    between atoms: _339  and  _341
REMARK  144  A    between atoms: _341  and  _342
REMARK  145  A    between atoms: _344  and  _346
REMARK  146  A    between atoms: _346  and  _347
REMARK  147  A    between atoms: _346  and  _349
REMARK  148  A    between atoms: _349  and  _350
REMARK  149  A    between atoms: _352  and  _354
REMARK  150  A    between atoms: _354  and  _355
REMARK  151  A    between atoms: _354  and  _357
REMARK  152  A    between atoms: _357  and  _358
REMARK  153  A    between atoms: _358  and  _359
REMARK  154  A    between atoms: _359  and  _360
REMARK  155  A    between atoms: _369  and  _371
REMARK  156  A    between atoms: _371  and  _372
REMARK  157  A    between atoms: _375  and  _377
REMARK  158  A    between atoms: _377  and  _378
REMARK  159  A    between atoms: _377  and  _380
REMARK  160  A    between atoms: _383  and  _385
REMARK  161  A    between atoms: _385  and  _386
REMARK  162  A    between atoms: _388  and  _390
REMARK  163  A    between atoms: _390  and  _391
REMARK  164  A    between atoms: _393  and  _395
REMARK  165  A    between atoms: _395  and  _396
REMARK  166  A    between atoms: _395  and  _398
REMARK  167  A    between atoms: _398  and  _399
REMARK  168  A    between atoms: _402  and  _404
REMARK  169  A    between atoms: _404  and  _405
REMARK  170  A    between atoms: _408  and  _410
REMARK  171  A    between atoms: _410  and  _411
REMARK  172  A    between atoms: _410  and  _413
REMARK  173  A    between atoms: _416  and  _418
REMARK  174  A    between atoms: _418  and  _419
REMARK  175  A    between atoms: _421  and  _423
REMARK  176  A    between atoms: _423  and  _424
REMARK  177  A    between atoms: _423  and  _426
REMARK  178  A    between atoms: _426  and  _427
REMARK  179  A    between atoms: _427  and  _428
REMARK  180  A    between atoms: _431  and  _433
REMARK  181  A    between atoms: _433  and  _434
REMARK  182  A    between atoms: _433  and  _436
REMARK  183  A    between atoms: _436  and  _437
REMARK  184  A    between atoms: _442  and  _443
REMARK  185  A    between atoms: _445  and  _447
REMARK  186  A    between atoms: _447  and  _448
REMARK  187  A    between atoms: _447  and  _450
REMARK  188  A    between atoms: _450  and  _451
REMARK  189  A    between atoms: _454  and  _456
REMARK  190  A    between atoms: _456  and  _457
REMARK  191  A    between atoms: _456  and  _459
REMARK  192  A    between atoms: _459  and  _460
REMARK  193  A    between atoms: _460  and  _461
REMARK  194  A    between atoms: _463  and  _465
REMARK  195  A    between atoms: _465  and  _466
REMARK  196  A    between atoms: _468  and  _470
REMARK  197  A    between atoms: _470  and  _471
REMARK  198  A    between atoms: _470  and  _473
REMARK  199  A    between atoms: _476  and  _478
REMARK  200  A    between atoms: _478  and  _479
REMARK  201  A    between atoms: _481  and  _483
REMARK  202  A    between atoms: _483  and  _484
REMARK  203  A    between atoms: _483  and  _486
REMARK  204  A    between atoms: _486  and  _487
REMARK  205  A    between atoms: _493  and  _495
REMARK  206  A    between atoms: _495  and  _496
REMARK  207  A    between atoms: _495  and  _498
REMARK  208  A    between atoms: _498  and  _499
REMARK  209  A    between atoms: _502  and  _504
REMARK  210  A    between atoms: _504  and  _505
REMARK  211  A    between atoms: _504  and  _507
REMARK  212  A    between atoms: _509  and  _511
REMARK  213  A    between atoms: _511  and  _512
REMARK  214  A    between atoms: _511  and  _514
REMARK  215  A    between atoms: _517  and  _519
REMARK  216  A    between atoms: _519  and  _520
REMARK  217  A    between atoms: _519  and  _522
REMARK  218  A    between atoms: _522  and  _523
REMARK  219  A    between atoms: _526  and  _528
REMARK  220  A    between atoms: _528  and  _529
REMARK  221  A    between atoms: _528  and  _531
REMARK  222  A    between atoms: _531  and  _532
REMARK  223  A    between atoms: _532  and  _533
REMARK  224  A    between atoms: _533  and  _534
REMARK                            x       y       z     vdW  Elec       q    Type
REMARK                         _______ _______ _______ _____ _____    ______ ____
ROOT
ATOM      1  O   HOH     1      -1.042  14.730  81.663  0.00  0.00    +0.000 OA
ENDROOT
TORSDOF 0
REMARK  Name = ../refined-set-2016/4lbu/4lbu_pocket.pdb
REMARK  224 active torsions:
REMARK  status: ('A' for Active; 'I' for Inactive)
REMARK    1  A    between atoms: _1  and  _3
REMARK    2  A    between atoms: _3  and  _4
REMARK    3  A    between atoms: _3  and  _6
REMARK    4  A    between atoms: _6  and  _7
REMARK    5  A    between atoms: _7  and  _8
REMARK    6  A    between atoms: _11  and  _12
REMARK    7  A    between atoms: _17  and  _19
REMARK    8  A    between atoms: _19  and  _20
REMARK    9  A    between atoms: _19  and  _22
REMARK   10  A    between atoms: _25  and  _27
REMARK   11  A    between atoms: _27  and  _28
REMARK   12  A    between atoms: _30  and  _32
REMARK   13  A    between atoms: _32  and  _33
REMARK   14  A    between atoms: _32  and  _35
REMARK   15  A    between atoms: _35  and  _36
REMARK   16  A    between atoms: _39  and  _41
REMARK   17  A    between atoms: _41  and  _42
REMARK   18  A    between atoms: _45  and  _47
REMARK   19  A    between atoms: _47  and  _48
REMARK   20  A    between atoms: _51  and  _53
REMARK   21  A    between atoms: _53  and  _54
REMARK   22  A    between atoms: _53  and  _56
REMARK   23  A    between atoms: _56  and  _57
REMARK   24  A    between atoms: _60  and  _62
REMARK   25  A    between atoms: _62  and  _63
REMARK   26  A    between atoms: _62  and  _65
REMARK   27  A    between atoms: _65  and  _66
REMARK   28  A    between atoms: _69  and  _71
REMARK   29  A    between atoms: _71  and  _72
REMARK   30  A    between atoms: _74  and  _76
REMARK   31  A    between atoms: _76  and  _77
REMARK   32  A    between atoms: _76  and  _79
REMARK   33  A    between atoms: _79  and  _80
REMARK   34  A    between atoms: _85  and  _87
REMARK   35  A    between atoms: _87  and  _88
REMARK   36  A    between atoms: _87  and  _90
REMARK   37  A    between atoms: _90  and  _91
REMARK   38  A    between atoms: _94  and  _96
REMARK   39  A    between atoms: _96  and  _97
REMARK   40  A    between atoms: _96  and  _99
REMARK   41  A    between atoms: _99  and  _100
REMARK   42  A    between atoms: _105  and  _106
REMARK   43  A    between atoms: _108  and  _110
REMARK   44  A    between atoms: _110  and  _111
REMARK   45  A    between atoms: _110  and  _113
REMARK   46  A    between atoms: _113  and  _114
REMARK   47  A    between atoms: _119  and  _121
REMARK   48  A    between atoms: _121  and  _122
REMARK   49  A    between atoms: _121  and  _124
REMARK   50  A    between atoms: _124  and  _125
REMARK   51  A    between atoms: _128  and  _130
REMARK   52  A    between atoms: _130  and  _131
REMARK   53  A    between atoms: _130  and  _133
REMARK   54  A    between atoms: _133  and  _134
REMARK   55  A    between atoms: _137  and  _139
REMARK   56  A    between atoms: _139  and  _140
REMARK   57  A    between atoms: _139  and  _142
REMARK   58  A    between atoms: _142  and  _143
REMARK   59  A    between atoms: _146  and  _148
REMARK   60  A    between atoms: _148  and  _149
REMARK   61  A    between atoms: _148  and  _151
REMARK   62  A    between atoms: _151  and  _152
REMARK   63  A    between atoms: _155  and  _157
REMARK   64  A    between atoms: _157  and  _158
REMARK   65  A    between atoms: _157  and  _160
REMARK   66  A    between atoms: _160  and  _161
REMARK   67  A    between atoms: _163  and  _165
REMARK   68  A    between atoms: _165  and  _166
REMARK   69  A    between atoms: _168  and  _170
REMARK   70  A    between atoms: _170  and  _171
REMARK   71  A    between atoms: _173  and  _175
REMARK   72  A    between atoms: _175  and  _176
REMARK   73  A    between atoms: _175  and  _178
REMARK   74  A    between atoms: _178  and  _179
REMARK   75  A    between atoms: _184  and  _185
REMARK   76  A    between atoms: _187  and  _189
REMARK   77  A    between atoms: _189  and  _190
REMARK   78  A    between atoms: _189  and  _192
REMARK   79  A    between atoms: _192  and  _193
REMARK   80  A    between atoms: _193  and  _194
REMARK   81  A    between atoms: _199  and  _201
REMARK   82  A    between atoms: _201  and  _202
REMARK   83  A    between atoms: _201  and  _204
REMARK   84  A    between atoms: _207  and  _209
REMARK   85  A    between atoms: _209  and  _210
REMARK   86  A    between atoms: _209  and  _212
REMARK   87  A    between atoms: _212  and  _213
REMARK   88  A    between atoms: _213  and  _214
REMARK   89  A    between atoms: _216  and  _218
REMARK   90  A    between atoms: _218  and  _219
REMARK   91  A    between atoms: _218  and  _221
REMARK   92  A    between atoms: _221  and  _222
REMARK   93  A    between atoms: _224  and  _226
REMARK   94  A    between atoms: _226  and  _227
REMARK   95  A    between atoms: _226  and  _229
REMARK   96  A    between atoms: _229  and  _230
REMARK   97  A    between atoms: _230  and  _231
REMARK   98  A    between atoms: _236  and  _238
REMARK   99  A    between atoms: _238  and  _239
REMARK  100  A    between atoms: _238  and  _241
REMARK  101  A    between atoms: _241  and  _242
REMARK  102  A    between atoms: _242  and  _243
REMARK  103  A    between atoms: _245  and  _247
REMARK  104  A    between atoms: _247  and  _248
REMARK  105  A    between atoms: _251  and  _253
REMARK  106  A    between atoms: _253  and  _254
REMARK  107  A    between atoms: _253  and  _256
REMARK  108  A    between atoms: _256  and  _257
REMARK  109  A    between atoms: _263  and  _265
REMARK  110  A    between atoms: _265  and  _266
REMARK  111  A    between atoms: _265  and  _268
REMARK  112  A    between atoms: _268  and  _269
REMARK  113  A    between atoms: _272  and  _274
REMARK  114  A    between atoms: _274  and  _275
REMARK  115  A    between atoms: _274  and  _277
REMARK  116  A    between atoms: _277  and  _278
REMARK  117  A    between atoms: _278  and  _279
REMARK  118  A    between atoms: _282  and  _284
REMARK  119  A    between atoms: _284  and  _285
REMARK  120  A    between atoms: _284  and  _287
REMARK  121  A    between atoms: _289  and  _291
REMARK  122  A    between atoms: _291  and  _292
REMARK  123  A    between atoms: _291  and  _294
REMARK  124  A    between atoms: _294  and  _295
REMARK  125  A    between atoms: _298  and  _300
REMARK  126  A    between atoms: _300  and  _301
REMARK  127  A    between atoms: _300  and  _303
REMARK  128  A    between atoms: _303  and  _304
REMARK  129  A    between atoms: _306  and  _308
REMARK  130  A    between atoms: _308  and  _309
REMARK  131  A    between atoms: _308  and  _311
REMARK  132  A    between atoms: _311  and  _312
REMARK  133  A    between atoms: _315  and  _317
REMARK  134  A    between atoms: _317  and  _318
REMARK  135  A    between atoms: _317  and  _320
REMARK  136  A    between atoms: _320  and  _321
REMARK  137  A    between atoms: _321  and  _322
REMARK  138  A    between atoms: _327  and  _329
REMARK  139  A    between atoms: _329  and  _330
REMARK  140  A    between atoms: _329  and  _332
REMARK  141  A    between atoms: _332  and  _333
REMARK  142  A    between atoms: _333  and  _334
REMARK  143  A    between atoms: _339  and  _341
REMARK  144  A    between atoms: _341  and  _342
REMARK  145  A    between atoms: _344  and  _346
REMARK  146  A    between atoms: _346  and  _347
REMARK  147  A    between atoms: _346  and  _349
REMARK  148  A    between atoms: _349  and  _350
REMARK  149  A    between atoms: _352  and  _354
REMARK  150  A    between atoms: _354  and  _355
REMARK  151  A    between atoms: _354  and  _357
REMARK  152  A    between atoms: _357  and  _358
REMARK  153  A    between atoms: _358  and  _359
REMARK  154  A    between atoms: _359  and  _360
REMARK  155  A    between atoms: _369  and  _371
REMARK  156  A    between atoms: _371  and  _372
REMARK  157  A    between atoms: _375  and  _377
REMARK  158  A    between atoms: _377  and  _378
REMARK  159  A    between atoms: _377  and  _380
REMARK  160  A    between atoms: _383  and  _385
REMARK  161  A    between atoms: _385  and  _386
REMARK  162  A    between atoms: _388  and  _390
REMARK  163  A    between atoms: _390  and  _391
REMARK  164  A    between atoms: _393  and  _395
REMARK  165  A    between atoms: _395  and  _396
REMARK  166  A    between atoms: _395  and  _398
REMARK  167  A    between atoms: _398  and  _399
REMARK  168  A    between atoms: _402  and  _404
REMARK  169  A    between atoms: _404  and  _405
REMARK  170  A    between atoms: _408  and  _410
REMARK  171  A    between atoms: _410  and  _411
REMARK  172  A    between atoms: _410  and  _413
REMARK  173  A    between atoms: _416  and  _418
REMARK  174  A    between atoms: _418  and  _419
REMARK  175  A    between atoms: _421  and  _423
REMARK  176  A    between atoms: _423  and  _424
REMARK  177  A    between atoms: _423  and  _426
REMARK  178  A    between atoms: _426  and  _427
REMARK  179  A    between atoms: _427  and  _428
REMARK  180  A    between atoms: _431  and  _433
REMARK  181  A    between atoms: _433  and  _434
REMARK  182  A    between atoms: _433  and  _436
REMARK  183  A    between atoms: _436  and  _437
REMARK  184  A    between atoms: _442  and  _443
REMARK  185  A    between atoms: _445  and  _447
REMARK  186  A    between atoms: _447  and  _448
REMARK  187  A    between atoms: _447  and  _450
REMARK  188  A    between atoms: _450  and  _451
REMARK  189  A    between atoms: _454  and  _456
REMARK  190  A    between atoms: _456  and  _457
REMARK  191  A    between atoms: _456  and  _459
REMARK  192  A    between atoms: _459  and  _460
REMARK  193  A    between atoms: _460  and  _461
REMARK  194  A    between atoms: _463  and  _465
REMARK  195  A    between atoms: _465  and  _466
REMARK  196  A    between atoms: _468  and  _470
REMARK  197  A    between atoms: _470  and  _471
REMARK  198  A    between atoms: _470  and  _473
REMARK  199  A    between atoms: _476  and  _478
REMARK  200  A    between atoms: _478  and  _479
REMARK  201  A    between atoms: _481  and  _483
REMARK  202  A    between atoms: _483  and  _484
REMARK  203  A    between atoms: _483  and  _486
REMARK  204  A    between atoms: _486  and  _487
REMARK  205  A    between atoms: _493  and  _495
REMARK  206  A    between atoms: _495  and  _496
REMARK  207  A    between atoms: _495  and  _498
REMARK  208  A    between atoms: _498  and  _499
REMARK  209  A    between atoms: _502  and  _504
REMARK  210  A    between atoms: _504  and  _505
REMARK  211  A    between atoms: _504  and  _507
REMARK  212  A    between atoms: _509  and  _511
REMARK  213  A    between atoms: _511  and  _512
REMARK  214  A    between atoms: _511  and  _514
REMARK  215  A    between atoms: _517  and  _519
REMARK  216  A    between atoms: _519  and  _520
REMARK  217  A    between atoms: _519  and  _522
REMARK  218  A    between atoms: _522  and  _523
REMARK  219  A    between atoms: _526  and  _528
REMARK  220  A    between atoms: _528  and  _529
REMARK  221  A    between atoms: _528  and  _531
REMARK  222  A    between atoms: _531  and  _532
REMARK  223  A    between atoms: _532  and  _533
REMARK  224  A    between atoms: _533  and  _534
REMARK                            x       y       z     vdW  Elec       q    Type
REMARK                         _______ _______ _______ _____ _____    ______ ____
ROOT
ATOM      1  O   HOH     1      17.868  18.628  83.691  0.00  0.00    +0.000 OA
ENDROOT
TORSDOF 0
REMARK  Name = ../refined-set-2016/4lbu/4lbu_pocket.pdb
REMARK  224 active torsions:
REMARK  status: ('A' for Active; 'I' for Inactive)
REMARK    1  A    between atoms: _1  and  _3
REMARK    2  A    between atoms: _3  and  _4
REMARK    3  A    between atoms: _3  and  _6
REMARK    4  A    between atoms: _6  and  _7
REMARK    5  A    between atoms: _7  and  _8
REMARK    6  A    between atoms: _11  and  _12
REMARK    7  A    between atoms: _17  and  _19
REMARK    8  A    between atoms: _19  and  _20
REMARK    9  A    between atoms: _19  and  _22
REMARK   10  A    between atoms: _25  and  _27
REMARK   11  A    between atoms: _27  and  _28
REMARK   12  A    between atoms: _30  and  _32
REMARK   13  A    between atoms: _32  and  _33
REMARK   14  A    between atoms: _32  and  _35
REMARK   15  A    between atoms: _35  and  _36
REMARK   16  A    between atoms: _39  and  _41
REMARK   17  A    between atoms: _41  and  _42
REMARK   18  A    between atoms: _45  and  _47
REMARK   19  A    between atoms: _47  and  _48
REMARK   20  A    between atoms: _51  and  _53
REMARK   21  A    between atoms: _53  and  _54
REMARK   22  A    between atoms: _53  and  _56
REMARK   23  A    between atoms: _56  and  _57
REMARK   24  A    between atoms: _60  and  _62
REMARK   25  A    between atoms: _62  and  _63
REMARK   26  A    between atoms: _62  and  _65
REMARK   27  A    between atoms: _65  and  _66
REMARK   28  A    between atoms: _69  and  _71
REMARK   29  A    between atoms: _71  and  _72
REMARK   30  A    between atoms: _74  and  _76
REMARK   31  A    between atoms: _76  and  _77
REMARK   32  A    between atoms: _76  and  _79
REMARK   33  A    between atoms: _79  and  _80
REMARK   34  A    between atoms: _85  and  _87
REMARK   35  A    between atoms: _87  and  _88
REMARK   36  A    between atoms: _87  and  _90
REMARK   37  A    between atoms: _90  and  _91
REMARK   38  A    between atoms: _94  and  _96
REMARK   39  A    between atoms: _96  and  _97
REMARK   40  A    between atoms: _96  and  _99
REMARK   41  A    between atoms: _99  and  _100
REMARK   42  A    between atoms: _105  and  _106
REMARK   43  A    between atoms: _108  and  _110
REMARK   44  A    between atoms: _110  and  _111
REMARK   45  A    between atoms: _110  and  _113
REMARK   46  A    between atoms: _113  and  _114
REMARK   47  A    between atoms: _119  and  _121
REMARK   48  A    between atoms: _121  and  _122
REMARK   49  A    between atoms: _121  and  _124
REMARK   50  A    between atoms: _124  and  _125
REMARK   51  A    between atoms: _128  and  _130
REMARK   52  A    between atoms: _130  and  _131
REMARK   53  A    between atoms: _130  and  _133
REMARK   54  A    between atoms: _133  and  _134
REMARK   55  A    between atoms: _137  and  _139
REMARK   56  A    between atoms: _139  and  _140
REMARK   57  A    between atoms: _139  and  _142
REMARK   58  A    between atoms: _142  and  _143
REMARK   59  A    between atoms: _146  and  _148
REMARK   60  A    between atoms: _148  and  _149
REMARK   61  A    between atoms: _148  and  _151
REMARK   62  A    between atoms: _151  and  _152
REMARK   63  A    between atoms: _155  and  _157
REMARK   64  A    between atoms: _157  and  _158
REMARK   65  A    between atoms: _157  and  _160
REMARK   66  A    between atoms: _160  and  _161
REMARK   67  A    between atoms: _163  and  _165
REMARK   68  A    between atoms: _165  and  _166
REMARK   69  A    between atoms: _168  and  _170
REMARK   70  A    between atoms: _170  and  _171
REMARK   71  A    between atoms: _173  and  _175
REMARK   72  A    between atoms: _175  and  _176
REMARK   73  A    between atoms: _175  and  _178
REMARK   74  A    between atoms: _178  and  _179
REMARK   75  A    between atoms: _184  and  _185
REMARK   76  A    between atoms: _187  and  _189
REMARK   77  A    between atoms: _189  and  _190
REMARK   78  A    between atoms: _189  and  _192
REMARK   79  A    between atoms: _192  and  _193
REMARK   80  A    between atoms: _193  and  _194
REMARK   81  A    between atoms: _199  and  _201
REMARK   82  A    between atoms: _201  and  _202
REMARK   83  A    between atoms: _201  and  _204
REMARK   84  A    between atoms: _207  and  _209
REMARK   85  A    between atoms: _209  and  _210
REMARK   86  A    between atoms: _209  and  _212
REMARK   87  A    between atoms: _212  and  _213
REMARK   88  A    between atoms: _213  and  _214
REMARK   89  A    between atoms: _216  and  _218
REMARK   90  A    between atoms: _218  and  _219
REMARK   91  A    between atoms: _218  and  _221
REMARK   92  A    between atoms: _221  and  _222
REMARK   93  A    between atoms: _224  and  _226
REMARK   94  A    between atoms: _226  and  _227
REMARK   95  A    between atoms: _226  and  _229
REMARK   96  A    between atoms: _229  and  _230
REMARK   97  A    between atoms: _230  and  _231
REMARK   98  A    between atoms: _236  and  _238
REMARK   99  A    between atoms: _238  and  _239
REMARK  100  A    between atoms: _238  and  _241
REMARK  101  A    between atoms: _241  and  _242
REMARK  102  A    between atoms: _242  and  _243
REMARK  103  A    between atoms: _245  and  _247
REMARK  104  A    between atoms: _247  and  _248
REMARK  105  A    between atoms: _251  and  _253
REMARK  106  A    between atoms: _253  and  _254
REMARK  107  A    between atoms: _253  and  _256
REMARK  108  A    between atoms: _256  and  _257
REMARK  109  A    between atoms: _263  and  _265
REMARK  110  A    between atoms: _265  and  _266
REMARK  111  A    between atoms: _265  and  _268
REMARK  112  A    between atoms: _268  and  _269
REMARK  113  A    between atoms: _272  and  _274
REMARK  114  A    between atoms: _274  and  _275
REMARK  115  A    between atoms: _274  and  _277
REMARK  116  A    between atoms: _277  and  _278
REMARK  117  A    between atoms: _278  and  _279
REMARK  118  A    between atoms: _282  and  _284
REMARK  119  A    between atoms: _284  and  _285
REMARK  120  A    between atoms: _284  and  _287
REMARK  121  A    between atoms: _289  and  _291
REMARK  122  A    between atoms: _291  and  _292
REMARK  123  A    between atoms: _291  and  _294
REMARK  124  A    between atoms: _294  and  _295
REMARK  125  A    between atoms: _298  and  _300
REMARK  126  A    between atoms: _300  and  _301
REMARK  127  A    between atoms: _300  and  _303
REMARK  128  A    between atoms: _303  and  _304
REMARK  129  A    between atoms: _306  and  _308
REMARK  130  A    between atoms: _308  and  _309
REMARK  131  A    between atoms: _308  and  _311
REMARK  132  A    between atoms: _311  and  _312
REMARK  133  A    between atoms: _315  and  _317
REMARK  134  A    between atoms: _317  and  _318
REMARK  135  A    between atoms: _317  and  _320
REMARK  136  A    between atoms: _320  and  _321
REMARK  137  A    between atoms: _321  and  _322
REMARK  138  A    between atoms: _327  and  _329
REMARK  139  A    between atoms: _329  and  _330
REMARK  140  A    between atoms: _329  and  _332
REMARK  141  A    between atoms: _332  and  _333
REMARK  142  A    between atoms: _333  and  _334
REMARK  143  A    between atoms: _339  and  _341
REMARK  144  A    between atoms: _341  and  _342
REMARK  145  A    between atoms: _344  and  _346
REMARK  146  A    between atoms: _346  and  _347
REMARK  147  A    between atoms: _346  and  _349
REMARK  148  A    between atoms: _349  and  _350
REMARK  149  A    between atoms: _352  and  _354
REMARK  150  A    between atoms: _354  and  _355
REMARK  151  A    between atoms: _354  and  _357
REMARK  152  A    between atoms: _357  and  _358
REMARK  153  A    between atoms: _358  and  _359
REMARK  154  A    between atoms: _359  and  _360
REMARK  155  A    between atoms: _369  and  _371
REMARK  156  A    between atoms: _371  and  _372
REMARK  157  A    between atoms: _375  and  _377
REMARK  158  A    between atoms: _377  and  _378
REMARK  159  A    between atoms: _377  and  _380
REMARK  160  A    between atoms: _383  and  _385
REMARK  161  A    between atoms: _385  and  _386
REMARK  162  A    between atoms: _388  and  _390
REMARK  163  A    between atoms: _390  and  _391
REMARK  164  A    between atoms: _393  and  _395
REMARK  165  A    between atoms: _395  and  _396
REMARK  166  A    between atoms: _395  and  _398
REMARK  167  A    between atoms: _398  and  _399
REMARK  168  A    between atoms: _402  and  _404
REMARK  169  A    between atoms: _404  and  _405
REMARK  170  A    between atoms: _408  and  _410
REMARK  171  A    between atoms: _410  and  _411
REMARK  172  A    between atoms: _410  and  _413
REMARK  173  A    between atoms: _416  and  _418
REMARK  174  A    between atoms: _418  and  _419
REMARK  175  A    between atoms: _421  and  _423
REMARK  176  A    between atoms: _423  and  _424
REMARK  177  A    between atoms: _423  and  _426
REMARK  178  A    between atoms: _426  and  _427
REMARK  179  A    between atoms: _427  and  _428
REMARK  180  A    between atoms: _431  and  _433
REMARK  181  A    between atoms: _433  and  _434
REMARK  182  A    between atoms: _433  and  _436
REMARK  183  A    between atoms: _436  and  _437
REMARK  184  A    between atoms: _442  and  _443
REMARK  185  A    between atoms: _445  and  _447
REMARK  186  A    between atoms: _447  and  _448
REMARK  187  A    between atoms: _447  and  _450
REMARK  188  A    between atoms: _450  and  _451
REMARK  189  A    between atoms: _454  and  _456
REMARK  190  A    between atoms: _456  and  _457
REMARK  191  A    between atoms: _456  and  _459
REMARK  192  A    between atoms: _459  and  _460
REMARK  193  A    between atoms: _460  and  _461
REMARK  194  A    between atoms: _463  and  _465
REMARK  195  A    between atoms: _465  and  _466
REMARK  196  A    between atoms: _468  and  _470
REMARK  197  A    between atoms: _470  and  _471
REMARK  198  A    between atoms: _470  and  _473
REMARK  199  A    between atoms: _476  and  _478
REMARK  200  A    between atoms: _478  and  _479
REMARK  201  A    between atoms: _481  and  _483
REMARK  202  A    between atoms: _483  and  _484
REMARK  203  A    between atoms: _483  and  _486
REMARK  204  A    between atoms: _486  and  _487
REMARK  205  A    between atoms: _493  and  _495
REMARK  206  A    between atoms: _495  and  _496
REMARK  207  A    between atoms: _495  and  _498
REMARK  208  A    between atoms: _498  and  _499
REMARK  209  A    between atoms: _502  and  _504
REMARK  210  A    between atoms: _504  and  _505
REMARK  211  A    between atoms: _504  and  _507
REMARK  212  A    between atoms: _509  and  _511
REMARK  213  A    between atoms: _511  and  _512
REMARK  214  A    between atoms: _511  and  _514
REMARK  215  A    between atoms: _517  and  _519
REMARK  216  A    between atoms: _519  and  _520
REMARK  217  A    between atoms: _519  and  _522
REMARK  218  A    between atoms: _522  and  _523
REMARK  219  A    between atoms: _526  and  _528
REMARK  220  A    between atoms: _528  and  _529
REMARK  221  A    between atoms: _528  and  _531
REMARK  222  A    between atoms: _531  and  _532
REMARK  223  A    between atoms: _532  and  _533
REMARK  224  A    between atoms: _533  and  _534
REMARK                            x       y       z     vdW  Elec       q    Type
REMARK                         _______ _______ _______ _____ _____    ______ ____
ROOT
ATOM      1  O   HOH     1       8.347  20.573  81.852  0.00  0.00    +0.000 OA
ENDROOT
TORSDOF 0
REMARK  Name = ../refined-set-2016/4lbu/4lbu_pocket.pdb
REMARK  224 active torsions:
REMARK  status: ('A' for Active; 'I' for Inactive)
REMARK    1  A    between atoms: _1  and  _3
REMARK    2  A    between atoms: _3  and  _4
REMARK    3  A    between atoms: _3  and  _6
REMARK    4  A    between atoms: _6  and  _7
REMARK    5  A    between atoms: _7  and  _8
REMARK    6  A    between atoms: _11  and  _12
REMARK    7  A    between atoms: _17  and  _19
REMARK    8  A    between atoms: _19  and  _20
REMARK    9  A    between atoms: _19  and  _22
REMARK   10  A    between atoms: _25  and  _27
REMARK   11  A    between atoms: _27  and  _28
REMARK   12  A    between atoms: _30  and  _32
REMARK   13  A    between atoms: _32  and  _33
REMARK   14  A    between atoms: _32  and  _35
REMARK   15  A    between atoms: _35  and  _36
REMARK   16  A    between atoms: _39  and  _41
REMARK   17  A    between atoms: _41  and  _42
REMARK   18  A    between atoms: _45  and  _47
REMARK   19  A    between atoms: _47  and  _48
REMARK   20  A    between atoms: _51  and  _53
REMARK   21  A    between atoms: _53  and  _54
REMARK   22  A    between atoms: _53  and  _56
REMARK   23  A    between atoms: _56  and  _57
REMARK   24  A    between atoms: _60  and  _62
REMARK   25  A    between atoms: _62  and  _63
REMARK   26  A    between atoms: _62  and  _65
REMARK   27  A    between atoms: _65  and  _66
REMARK   28  A    between atoms: _69  and  _71
REMARK   29  A    between atoms: _71  and  _72
REMARK   30  A    between atoms: _74  and  _76
REMARK   31  A    between atoms: _76  and  _77
REMARK   32  A    between atoms: _76  and  _79
REMARK   33  A    between atoms: _79  and  _80
REMARK   34  A    between atoms: _85  and  _87
REMARK   35  A    between atoms: _87  and  _88
REMARK   36  A    between atoms: _87  and  _90
REMARK   37  A    between atoms: _90  and  _91
REMARK   38  A    between atoms: _94  and  _96
REMARK   39  A    between atoms: _96  and  _97
REMARK   40  A    between atoms: _96  and  _99
REMARK   41  A    between atoms: _99  and  _100
REMARK   42  A    between atoms: _105  and  _106
REMARK   43  A    between atoms: _108  and  _110
REMARK   44  A    between atoms: _110  and  _111
REMARK   45  A    between atoms: _110  and  _113
REMARK   46  A    between atoms: _113  and  _114
REMARK   47  A    between atoms: _119  and  _121
REMARK   48  A    between atoms: _121  and  _122
REMARK   49  A    between atoms: _121  and  _124
REMARK   50  A    between atoms: _124  and  _125
REMARK   51  A    between atoms: _128  and  _130
REMARK   52  A    between atoms: _130  and  _131
REMARK   53  A    between atoms: _130  and  _133
REMARK   54  A    between atoms: _133  and  _134
REMARK   55  A    between atoms: _137  and  _139
REMARK   56  A    between atoms: _139  and  _140
REMARK   57  A    between atoms: _139  and  _142
REMARK   58  A    between atoms: _142  and  _143
REMARK   59  A    between atoms: _146  and  _148
REMARK   60  A    between atoms: _148  and  _149
REMARK   61  A    between atoms: _148  and  _151
REMARK   62  A    between atoms: _151  and  _152
REMARK   63  A    between atoms: _155  and  _157
REMARK   64  A    between atoms: _157  and  _158
REMARK   65  A    between atoms: _157  and  _160
REMARK   66  A    between atoms: _160  and  _161
REMARK   67  A    between atoms: _163  and  _165
REMARK   68  A    between atoms: _165  and  _166
REMARK   69  A    between atoms: _168  and  _170
REMARK   70  A    between atoms: _170  and  _171
REMARK   71  A    between atoms: _173  and  _175
REMARK   72  A    between atoms: _175  and  _176
REMARK   73  A    between atoms: _175  and  _178
REMARK   74  A    between atoms: _178  and  _179
REMARK   75  A    between atoms: _184  and  _185
REMARK   76  A    between atoms: _187  and  _189
REMARK   77  A    between atoms: _189  and  _190
REMARK   78  A    between atoms: _189  and  _192
REMARK   79  A    between atoms: _192  and  _193
REMARK   80  A    between atoms: _193  and  _194
REMARK   81  A    between atoms: _199  and  _201
REMARK   82  A    between atoms: _201  and  _202
REMARK   83  A    between atoms: _201  and  _204
REMARK   84  A    between atoms: _207  and  _209
REMARK   85  A    between atoms: _209  and  _210
REMARK   86  A    between atoms: _209  and  _212
REMARK   87  A    between atoms: _212  and  _213
REMARK   88  A    between atoms: _213  and  _214
REMARK   89  A    between atoms: _216  and  _218
REMARK   90  A    between atoms: _218  and  _219
REMARK   91  A    between atoms: _218  and  _221
REMARK   92  A    between atoms: _221  and  _222
REMARK   93  A    between atoms: _224  and  _226
REMARK   94  A    between atoms: _226  and  _227
REMARK   95  A    between atoms: _226  and  _229
REMARK   96  A    between atoms: _229  and  _230
REMARK   97  A    between atoms: _230  and  _231
REMARK   98  A    between atoms: _236  and  _238
REMARK   99  A    between atoms: _238  and  _239
REMARK  100  A    between atoms: _238  and  _241
REMARK  101  A    between atoms: _241  and  _242
REMARK  102  A    between atoms: _242  and  _243
REMARK  103  A    between atoms: _245  and  _247
REMARK  104  A    between atoms: _247  and  _248
REMARK  105  A    between atoms: _251  and  _253
REMARK  106  A    between atoms: _253  and  _254
REMARK  107  A    between atoms: _253  and  _256
REMARK  108  A    between atoms: _256  and  _257
REMARK  109  A    between atoms: _263  and  _265
REMARK  110  A    between atoms: _265  and  _266
REMARK  111  A    between atoms: _265  and  _268
REMARK  112  A    between atoms: _268  and  _269
REMARK  113  A    between atoms: _272  and  _274
REMARK  114  A    between atoms: _274  and  _275
REMARK  115  A    between atoms: _274  and  _277
REMARK  116  A    between atoms: _277  and  _278
REMARK  117  A    between atoms: _278  and  _279
REMARK  118  A    between atoms: _282  and  _284
REMARK  119  A    between atoms: _284  and  _285
REMARK  120  A    between atoms: _284  and  _287
REMARK  121  A    between atoms: _289  and  _291
REMARK  122  A    between atoms: _291  and  _292
REMARK  123  A    between atoms: _291  and  _294
REMARK  124  A    between atoms: _294  and  _295
REMARK  125  A    between atoms: _298  and  _300
REMARK  126  A    between atoms: _300  and  _301
REMARK  127  A    between atoms: _300  and  _303
REMARK  128  A    between atoms: _303  and  _304
REMARK  129  A    between atoms: _306  and  _308
REMARK  130  A    between atoms: _308  and  _309
REMARK  131  A    between atoms: _308  and  _311
REMARK  132  A    between atoms: _311  and  _312
REMARK  133  A    between atoms: _315  and  _317
REMARK  134  A    between atoms: _317  and  _318
REMARK  135  A    between atoms: _317  and  _320
REMARK  136  A    between atoms: _320  and  _321
REMARK  137  A    between atoms: _321  and  _322
REMARK  138  A    between atoms: _327  and  _329
REMARK  139  A    between atoms: _329  and  _330
REMARK  140  A    between atoms: _329  and  _332
REMARK  141  A    between atoms: _332  and  _333
REMARK  142  A    between atoms: _333  and  _334
REMARK  143  A    between atoms: _339  and  _341
REMARK  144  A    between atoms: _341  and  _342
REMARK  145  A    between atoms: _344  and  _346
REMARK  146  A    between atoms: _346  and  _347
REMARK  147  A    between atoms: _346  and  _349
REMARK  148  A    between atoms: _349  and  _350
REMARK  149  A    between atoms: _352  and  _354
REMARK  150  A    between atoms: _354  and  _355
REMARK  151  A    between atoms: _354  and  _357
REMARK  152  A    between atoms: _357  and  _358
REMARK  153  A    between atoms: _358  and  _359
REMARK  154  A    between atoms: _359  and  _360
REMARK  155  A    between atoms: _369  and  _371
REMARK  156  A    between atoms: _371  and  _372
REMARK  157  A    between atoms: _375  and  _377
REMARK  158  A    between atoms: _377  and  _378
REMARK  159  A    between atoms: _377  and  _380
REMARK  160  A    between atoms: _383  and  _385
REMARK  161  A    between atoms: _385  and  _386
REMARK  162  A    between atoms: _388  and  _390
REMARK  163  A    between atoms: _390  and  _391
REMARK  164  A    between atoms: _393  and  _395
REMARK  165  A    between atoms: _395  and  _396
REMARK  166  A    between atoms: _395  and  _398
REMARK  167  A    between atoms: _398  and  _399
REMARK  168  A    between atoms: _402  and  _404
REMARK  169  A    between atoms: _404  and  _405
REMARK  170  A    between atoms: _408  and  _410
REMARK  171  A    between atoms: _410  and  _411
REMARK  172  A    between atoms: _410  and  _413
REMARK  173  A    between atoms: _416  and  _418
REMARK  174  A    between atoms: _418  and  _419
REMARK  175  A    between atoms: _421  and  _423
REMARK  176  A    between atoms: _423  and  _424
REMARK  177  A    between atoms: _423  and  _426
REMARK  178  A    between atoms: _426  and  _427
REMARK  179  A    between atoms: _427  and  _428
REMARK  180  A    between atoms: _431  and  _433
REMARK  181  A    between atoms: _433  and  _434
REMARK  182  A    between atoms: _433  and  _436
REMARK  183  A    between atoms: _436  and  _437
REMARK  184  A    between atoms: _442  and  _443
REMARK  185  A    between atoms: _445  and  _447
REMARK  186  A    between atoms: _447  and  _448
REMARK  187  A    between atoms: _447  and  _450
REMARK  188  A    between atoms: _450  and  _451
REMARK  189  A    between atoms: _454  and  _456
REMARK  190  A    between atoms: _456  and  _457
REMARK  191  A    between atoms: _456  and  _459
REMARK  192  A    between atoms: _459  and  _460
REMARK  193  A    between atoms: _460  and  _461
REMARK  194  A    between atoms: _463  and  _465
REMARK  195  A    between atoms: _465  and  _466
REMARK  196  A    between atoms: _468  and  _470
REMARK  197  A    between atoms: _470  and  _471
REMARK  198  A    between atoms: _470  and  _473
REMARK  199  A    between atoms: _476  and  _478
REMARK  200  A    between atoms: _478  and  _479
REMARK  201  A    between atoms: _481  and  _483
REMARK  202  A    between atoms: _483  and  _484
REMARK  203  A    between atoms: _483  and  _486
REMARK  204  A    between atoms: _486  and  _487
REMARK  205  A    between atoms: _493  and  _495
REMARK  206  A    between atoms: _495  and  _496
REMARK  207  A    between atoms: _495  and  _498
REMARK  208  A    between atoms: _498  and  _499
REMARK  209  A    between atoms: _502  and  _504
REMARK  210  A    between atoms: _504  and  _505
REMARK  211  A    between atoms: _504  and  _507
REMARK  212  A    between atoms: _509  and  _511
REMARK  213  A    between atoms: _511  and  _512
REMARK  214  A    between atoms: _511  and  _514
REMARK  215  A    between atoms: _517  and  _519
REMARK  216  A    between atoms: _519  and  _520
REMARK  217  A    between atoms: _519  and  _522
REMARK  218  A    between atoms: _522  and  _523
REMARK  219  A    between atoms: _526  and  _528
REMARK  220  A    between atoms: _528  and  _529
REMARK  221  A    between atoms: _528  and  _531
REMARK  222  A    between atoms: _531  and  _532
REMARK  223  A    between atoms: _532  and  _533
REMARK  224  A    between atoms: _533  and  _534
REMARK                            x       y       z     vdW  Elec       q    Type
REMARK                         _______ _______ _______ _____ _____    ______ ____
ROOT
ATOM      1  O   HOH     1       7.253  24.356  85.460  0.00  0.00    +0.000 OA
ENDROOT
TORSDOF 0
REMARK  Name = ../refined-set-2016/4lbu/4lbu_pocket.pdb
REMARK  224 active torsions:
REMARK  status: ('A' for Active; 'I' for Inactive)
REMARK    1  A    between atoms: _1  and  _3
REMARK    2  A    between atoms: _3  and  _4
REMARK    3  A    between atoms: _3  and  _6
REMARK    4  A    between atoms: _6  and  _7
REMARK    5  A    between atoms: _7  and  _8
REMARK    6  A    between atoms: _11  and  _12
REMARK    7  A    between atoms: _17  and  _19
REMARK    8  A    between atoms: _19  and  _20
REMARK    9  A    between atoms: _19  and  _22
REMARK   10  A    between atoms: _25  and  _27
REMARK   11  A    between atoms: _27  and  _28
REMARK   12  A    between atoms: _30  and  _32
REMARK   13  A    between atoms: _32  and  _33
REMARK   14  A    between atoms: _32  and  _35
REMARK   15  A    between atoms: _35  and  _36
REMARK   16  A    between atoms: _39  and  _41
REMARK   17  A    between atoms: _41  and  _42
REMARK   18  A    between atoms: _45  and  _47
REMARK   19  A    between atoms: _47  and  _48
REMARK   20  A    between atoms: _51  and  _53
REMARK   21  A    between atoms: _53  and  _54
REMARK   22  A    between atoms: _53  and  _56
REMARK   23  A    between atoms: _56  and  _57
REMARK   24  A    between atoms: _60  and  _62
REMARK   25  A    between atoms: _62  and  _63
REMARK   26  A    between atoms: _62  and  _65
REMARK   27  A    between atoms: _65  and  _66
REMARK   28  A    between atoms: _69  and  _71
REMARK   29  A    between atoms: _71  and  _72
REMARK   30  A    between atoms: _74  and  _76
REMARK   31  A    between atoms: _76  and  _77
REMARK   32  A    between atoms: _76  and  _79
REMARK   33  A    between atoms: _79  and  _80
REMARK   34  A    between atoms: _85  and  _87
REMARK   35  A    between atoms: _87  and  _88
REMARK   36  A    between atoms: _87  and  _90
REMARK   37  A    between atoms: _90  and  _91
REMARK   38  A    between atoms: _94  and  _96
REMARK   39  A    between atoms: _96  and  _97
REMARK   40  A    between atoms: _96  and  _99
REMARK   41  A    between atoms: _99  and  _100
REMARK   42  A    between atoms: _105  and  _106
REMARK   43  A    between atoms: _108  and  _110
REMARK   44  A    between atoms: _110  and  _111
REMARK   45  A    between atoms: _110  and  _113
REMARK   46  A    between atoms: _113  and  _114
REMARK   47  A    between atoms: _119  and  _121
REMARK   48  A    between atoms: _121  and  _122
REMARK   49  A    between atoms: _121  and  _124
REMARK   50  A    between atoms: _124  and  _125
REMARK   51  A    between atoms: _128  and  _130
REMARK   52  A    between atoms: _130  and  _131
REMARK   53  A    between atoms: _130  and  _133
REMARK   54  A    between atoms: _133  and  _134
REMARK   55  A    between atoms: _137  and  _139
REMARK   56  A    between atoms: _139  and  _140
REMARK   57  A    between atoms: _139  and  _142
REMARK   58  A    between atoms: _142  and  _143
REMARK   59  A    between atoms: _146  and  _148
REMARK   60  A    between atoms: _148  and  _149
REMARK   61  A    between atoms: _148  and  _151
REMARK   62  A    between atoms: _151  and  _152
REMARK   63  A    between atoms: _155  and  _157
REMARK   64  A    between atoms: _157  and  _158
REMARK   65  A    between atoms: _157  and  _160
REMARK   66  A    between atoms: _160  and  _161
REMARK   67  A    between atoms: _163  and  _165
REMARK   68  A    between atoms: _165  and  _166
REMARK   69  A    between atoms: _168  and  _170
REMARK   70  A    between atoms: _170  and  _171
REMARK   71  A    between atoms: _173  and  _175
REMARK   72  A    between atoms: _175  and  _176
REMARK   73  A    between atoms: _175  and  _178
REMARK   74  A    between atoms: _178  and  _179
REMARK   75  A    between atoms: _184  and  _185
REMARK   76  A    between atoms: _187  and  _189
REMARK   77  A    between atoms: _189  and  _190
REMARK   78  A    between atoms: _189  and  _192
REMARK   79  A    between atoms: _192  and  _193
REMARK   80  A    between atoms: _193  and  _194
REMARK   81  A    between atoms: _199  and  _201
REMARK   82  A    between atoms: _201  and  _202
REMARK   83  A    between atoms: _201  and  _204
REMARK   84  A    between atoms: _207  and  _209
REMARK   85  A    between atoms: _209  and  _210
REMARK   86  A    between atoms: _209  and  _212
REMARK   87  A    between atoms: _212  and  _213
REMARK   88  A    between atoms: _213  and  _214
REMARK   89  A    between atoms: _216  and  _218
REMARK   90  A    between atoms: _218  and  _219
REMARK   91  A    between atoms: _218  and  _221
REMARK   92  A    between atoms: _221  and  _222
REMARK   93  A    between atoms: _224  and  _226
REMARK   94  A    between atoms: _226  and  _227
REMARK   95  A    between atoms: _226  and  _229
REMARK   96  A    between atoms: _229  and  _230
REMARK   97  A    between atoms: _230  and  _231
REMARK   98  A    between atoms: _236  and  _238
REMARK   99  A    between atoms: _238  and  _239
REMARK  100  A    between atoms: _238  and  _241
REMARK  101  A    between atoms: _241  and  _242
REMARK  102  A    between atoms: _242  and  _243
REMARK  103  A    between atoms: _245  and  _247
REMARK  104  A    between atoms: _247  and  _248
REMARK  105  A    between atoms: _251  and  _253
REMARK  106  A    between atoms: _253  and  _254
REMARK  107  A    between atoms: _253  and  _256
REMARK  108  A    between atoms: _256  and  _257
REMARK  109  A    between atoms: _263  and  _265
REMARK  110  A    between atoms: _265  and  _266
REMARK  111  A    between atoms: _265  and  _268
REMARK  112  A    between atoms: _268  and  _269
REMARK  113  A    between atoms: _272  and  _274
REMARK  114  A    between atoms: _274  and  _275
REMARK  115  A    between atoms: _274  and  _277
REMARK  116  A    between atoms: _277  and  _278
REMARK  117  A    between atoms: _278  and  _279
REMARK  118  A    between atoms: _282  and  _284
REMARK  119  A    between atoms: _284  and  _285
REMARK  120  A    between atoms: _284  and  _287
REMARK  121  A    between atoms: _289  and  _291
REMARK  122  A    between atoms: _291  and  _292
REMARK  123  A    between atoms: _291  and  _294
REMARK  124  A    between atoms: _294  and  _295
REMARK  125  A    between atoms: _298  and  _300
REMARK  126  A    between atoms: _300  and  _301
REMARK  127  A    between atoms: _300  and  _303
REMARK  128  A    between atoms: _303  and  _304
REMARK  129  A    between atoms: _306  and  _308
REMARK  130  A    between atoms: _308  and  _309
REMARK  131  A    between atoms: _308  and  _311
REMARK  132  A    between atoms: _311  and  _312
REMARK  133  A    between atoms: _315  and  _317
REMARK  134  A    between atoms: _317  and  _318
REMARK  135  A    between atoms: _317  and  _320
REMARK  136  A    between atoms: _320  and  _321
REMARK  137  A    between atoms: _321  and  _322
REMARK  138  A    between atoms: _327  and  _329
REMARK  139  A    between atoms: _329  and  _330
REMARK  140  A    between atoms: _329  and  _332
REMARK  141  A    between atoms: _332  and  _333
REMARK  142  A    between atoms: _333  and  _334
REMARK  143  A    between atoms: _339  and  _341
REMARK  144  A    between atoms: _341  and  _342
REMARK  145  A    between atoms: _344  and  _346
REMARK  146  A    between atoms: _346  and  _347
REMARK  147  A    between atoms: _346  and  _349
REMARK  148  A    between atoms: _349  and  _350
REMARK  149  A    between atoms: _352  and  _354
REMARK  150  A    between atoms: _354  and  _355
REMARK  151  A    between atoms: _354  and  _357
REMARK  152  A    between atoms: _357  and  _358
REMARK  153  A    between atoms: _358  and  _359
REMARK  154  A    between atoms: _359  and  _360
REMARK  155  A    between atoms: _369  and  _371
REMARK  156  A    between atoms: _371  and  _372
REMARK  157  A    between atoms: _375  and  _377
REMARK  158  A    between atoms: _377  and  _378
REMARK  159  A    between atoms: _377  and  _380
REMARK  160  A    between atoms: _383  and  _385
REMARK  161  A    between atoms: _385  and  _386
REMARK  162  A    between atoms: _388  and  _390
REMARK  163  A    between atoms: _390  and  _391
REMARK  164  A    between atoms: _393  and  _395
REMARK  165  A    between atoms: _395  and  _396
REMARK  166  A    between atoms: _395  and  _398
REMARK  167  A    between atoms: _398  and  _399
REMARK  168  A    between atoms: _402  and  _404
REMARK  169  A    between atoms: _404  and  _405
REMARK  170  A    between atoms: _408  and  _410
REMARK  171  A    between atoms: _410  and  _411
REMARK  172  A    between atoms: _410  and  _413
REMARK  173  A    between atoms: _416  and  _418
REMARK  174  A    between atoms: _418  and  _419
REMARK  175  A    between atoms: _421  and  _423
REMARK  176  A    between atoms: _423  and  _424
REMARK  177  A    between atoms: _423  and  _426
REMARK  178  A    between atoms: _426  and  _427
REMARK  179  A    between atoms: _427  and  _428
REMARK  180  A    between atoms: _431  and  _433
REMARK  181  A    between atoms: _433  and  _434
REMARK  182  A    between atoms: _433  and  _436
REMARK  183  A    between atoms: _436  and  _437
REMARK  184  A    between atoms: _442  and  _443
REMARK  185  A    between atoms: _445  and  _447
REMARK  186  A    between atoms: _447  and  _448
REMARK  187  A    between atoms: _447  and  _450
REMARK  188  A    between atoms: _450  and  _451
REMARK  189  A    between atoms: _454  and  _456
REMARK  190  A    between atoms: _456  and  _457
REMARK  191  A    between atoms: _456  and  _459
REMARK  192  A    between atoms: _459  and  _460
REMARK  193  A    between atoms: _460  and  _461
REMARK  194  A    between atoms: _463  and  _465
REMARK  195  A    between atoms: _465  and  _466
REMARK  196  A    between atoms: _468  and  _470
REMARK  197  A    between atoms: _470  and  _471
REMARK  198  A    between atoms: _470  and  _473
REMARK  199  A    between atoms: _476  and  _478
REMARK  200  A    between atoms: _478  and  _479
REMARK  201  A    between atoms: _481  and  _483
REMARK  202  A    between atoms: _483  and  _484
REMARK  203  A    between atoms: _483  and  _486
REMARK  204  A    between atoms: _486  and  _487
REMARK  205  A    between atoms: _493  and  _495
REMARK  206  A    between atoms: _495  and  _496
REMARK  207  A    between atoms: _495  and  _498
REMARK  208  A    between atoms: _498  and  _499
REMARK  209  A    between atoms: _502  and  _504
REMARK  210  A    between atoms: _504  and  _505
REMARK  211  A    between atoms: _504  and  _507
REMARK  212  A    between atoms: _509  and  _511
REMARK  213  A    between atoms: _511  and  _512
REMARK  214  A    between atoms: _511  and  _514
REMARK  215  A    between atoms: _517  and  _519
REMARK  216  A    between atoms: _519  and  _520
REMARK  217  A    between atoms: _519  and  _522
REMARK  218  A    between atoms: _522  and  _523
REMARK  219  A    between atoms: _526  and  _528
REMARK  220  A    between atoms: _528  and  _529
REMARK  221  A    between atoms: _528  and  _531
REMARK  222  A    between atoms: _531  and  _532
REMARK  223  A    between atoms: _532  and  _533
REMARK  224  A    between atoms: _533  and  _534
REMARK                            x       y       z     vdW  Elec       q    Type
REMARK                         _______ _______ _______ _____ _____    ______ ____
ROOT
ATOM      1  O   HOH     1      16.573  20.983  83.276  0.00  0.00    +0.000 OA
ENDROOT
TORSDOF 0
REMARK  Name = ../refined-set-2016/4lbu/4lbu_pocket.pdb
REMARK  224 active torsions:
REMARK  status: ('A' for Active; 'I' for Inactive)
REMARK    1  A    between atoms: _1  and  _3
REMARK    2  A    between atoms: _3  and  _4
REMARK    3  A    between atoms: _3  and  _6
REMARK    4  A    between atoms: _6  and  _7
REMARK    5  A    between atoms: _7  and  _8
REMARK    6  A    between atoms: _11  and  _12
REMARK    7  A    between atoms: _17  and  _19
REMARK    8  A    between atoms: _19  and  _20
REMARK    9  A    between atoms: _19  and  _22
REMARK   10  A    between atoms: _25  and  _27
REMARK   11  A    between atoms: _27  and  _28
REMARK   12  A    between atoms: _30  and  _32
REMARK   13  A    between atoms: _32  and  _33
REMARK   14  A    between atoms: _32  and  _35
REMARK   15  A    between atoms: _35  and  _36
REMARK   16  A    between atoms: _39  and  _41
REMARK   17  A    between atoms: _41  and  _42
REMARK   18  A    between atoms: _45  and  _47
REMARK   19  A    between atoms: _47  and  _48
REMARK   20  A    between atoms: _51  and  _53
REMARK   21  A    between atoms: _53  and  _54
REMARK   22  A    between atoms: _53  and  _56
REMARK   23  A    between atoms: _56  and  _57
REMARK   24  A    between atoms: _60  and  _62
REMARK   25  A    between atoms: _62  and  _63
REMARK   26  A    between atoms: _62  and  _65
REMARK   27  A    between atoms: _65  and  _66
REMARK   28  A    between atoms: _69  and  _71
REMARK   29  A    between atoms: _71  and  _72
REMARK   30  A    between atoms: _74  and  _76
REMARK   31  A    between atoms: _76  and  _77
REMARK   32  A    between atoms: _76  and  _79
REMARK   33  A    between atoms: _79  and  _80
REMARK   34  A    between atoms: _85  and  _87
REMARK   35  A    between atoms: _87  and  _88
REMARK   36  A    between atoms: _87  and  _90
REMARK   37  A    between atoms: _90  and  _91
REMARK   38  A    between atoms: _94  and  _96
REMARK   39  A    between atoms: _96  and  _97
REMARK   40  A    between atoms: _96  and  _99
REMARK   41  A    between atoms: _99  and  _100
REMARK   42  A    between atoms: _105  and  _106
REMARK   43  A    between atoms: _108  and  _110
REMARK   44  A    between atoms: _110  and  _111
REMARK   45  A    between atoms: _110  and  _113
REMARK   46  A    between atoms: _113  and  _114
REMARK   47  A    between atoms: _119  and  _121
REMARK   48  A    between atoms: _121  and  _122
REMARK   49  A    between atoms: _121  and  _124
REMARK   50  A    between atoms: _124  and  _125
REMARK   51  A    between atoms: _128  and  _130
REMARK   52  A    between atoms: _130  and  _131
REMARK   53  A    between atoms: _130  and  _133
REMARK   54  A    between atoms: _133  and  _134
REMARK   55  A    between atoms: _137  and  _139
REMARK   56  A    between atoms: _139  and  _140
REMARK   57  A    between atoms: _139  and  _142
REMARK   58  A    between atoms: _142  and  _143
REMARK   59  A    between atoms: _146  and  _148
REMARK   60  A    between atoms: _148  and  _149
REMARK   61  A    between atoms: _148  and  _151
REMARK   62  A    between atoms: _151  and  _152
REMARK   63  A    between atoms: _155  and  _157
REMARK   64  A    between atoms: _157  and  _158
REMARK   65  A    between atoms: _157  and  _160
REMARK   66  A    between atoms: _160  and  _161
REMARK   67  A    between atoms: _163  and  _165
REMARK   68  A    between atoms: _165  and  _166
REMARK   69  A    between atoms: _168  and  _170
REMARK   70  A    between atoms: _170  and  _171
REMARK   71  A    between atoms: _173  and  _175
REMARK   72  A    between atoms: _175  and  _176
REMARK   73  A    between atoms: _175  and  _178
REMARK   74  A    between atoms: _178  and  _179
REMARK   75  A    between atoms: _184  and  _185
REMARK   76  A    between atoms: _187  and  _189
REMARK   77  A    between atoms: _189  and  _190
REMARK   78  A    between atoms: _189  and  _192
REMARK   79  A    between atoms: _192  and  _193
REMARK   80  A    between atoms: _193  and  _194
REMARK   81  A    between atoms: _199  and  _201
REMARK   82  A    between atoms: _201  and  _202
REMARK   83  A    between atoms: _201  and  _204
REMARK   84  A    between atoms: _207  and  _209
REMARK   85  A    between atoms: _209  and  _210
REMARK   86  A    between atoms: _209  and  _212
REMARK   87  A    between atoms: _212  and  _213
REMARK   88  A    between atoms: _213  and  _214
REMARK   89  A    between atoms: _216  and  _218
REMARK   90  A    between atoms: _218  and  _219
REMARK   91  A    between atoms: _218  and  _221
REMARK   92  A    between atoms: _221  and  _222
REMARK   93  A    between atoms: _224  and  _226
REMARK   94  A    between atoms: _226  and  _227
REMARK   95  A    between atoms: _226  and  _229
REMARK   96  A    between atoms: _229  and  _230
REMARK   97  A    between atoms: _230  and  _231
REMARK   98  A    between atoms: _236  and  _238
REMARK   99  A    between atoms: _238  and  _239
REMARK  100  A    between atoms: _238  and  _241
REMARK  101  A    between atoms: _241  and  _242
REMARK  102  A    between atoms: _242  and  _243
REMARK  103  A    between atoms: _245  and  _247
REMARK  104  A    between atoms: _247  and  _248
REMARK  105  A    between atoms: _251  and  _253
REMARK  106  A    between atoms: _253  and  _254
REMARK  107  A    between atoms: _253  and  _256
REMARK  108  A    between atoms: _256  and  _257
REMARK  109  A    between atoms: _263  and  _265
REMARK  110  A    between atoms: _265  and  _266
REMARK  111  A    between atoms: _265  and  _268
REMARK  112  A    between atoms: _268  and  _269
REMARK  113  A    between atoms: _272  and  _274
REMARK  114  A    between atoms: _274  and  _275
REMARK  115  A    between atoms: _274  and  _277
REMARK  116  A    between atoms: _277  and  _278
REMARK  117  A    between atoms: _278  and  _279
REMARK  118  A    between atoms: _282  and  _284
REMARK  119  A    between atoms: _284  and  _285
REMARK  120  A    between atoms: _284  and  _287
REMARK  121  A    between atoms: _289  and  _291
REMARK  122  A    between atoms: _291  and  _292
REMARK  123  A    between atoms: _291  and  _294
REMARK  124  A    between atoms: _294  and  _295
REMARK  125  A    between atoms: _298  and  _300
REMARK  126  A    between atoms: _300  and  _301
REMARK  127  A    between atoms: _300  and  _303
REMARK  128  A    between atoms: _303  and  _304
REMARK  129  A    between atoms: _306  and  _308
REMARK  130  A    between atoms: _308  and  _309
REMARK  131  A    between atoms: _308  and  _311
REMARK  132  A    between atoms: _311  and  _312
REMARK  133  A    between atoms: _315  and  _317
REMARK  134  A    between atoms: _317  and  _318
REMARK  135  A    between atoms: _317  and  _320
REMARK  136  A    between atoms: _320  and  _321
REMARK  137  A    between atoms: _321  and  _322
REMARK  138  A    between atoms: _327  and  _329
REMARK  139  A    between atoms: _329  and  _330
REMARK  140  A    between atoms: _329  and  _332
REMARK  141  A    between atoms: _332  and  _333
REMARK  142  A    between atoms: _333  and  _334
REMARK  143  A    between atoms: _339  and  _341
REMARK  144  A    between atoms: _341  and  _342
REMARK  145  A    between atoms: _344  and  _346
REMARK  146  A    between atoms: _346  and  _347
REMARK  147  A    between atoms: _346  and  _349
REMARK  148  A    between atoms: _349  and  _350
REMARK  149  A    between atoms: _352  and  _354
REMARK  150  A    between atoms: _354  and  _355
REMARK  151  A    between atoms: _354  and  _357
REMARK  152  A    between atoms: _357  and  _358
REMARK  153  A    between atoms: _358  and  _359
REMARK  154  A    between atoms: _359  and  _360
REMARK  155  A    between atoms: _369  and  _371
REMARK  156  A    between atoms: _371  and  _372
REMARK  157  A    between atoms: _375  and  _377
REMARK  158  A    between atoms: _377  and  _378
REMARK  159  A    between atoms: _377  and  _380
REMARK  160  A    between atoms: _383  and  _385
REMARK  161  A    between atoms: _385  and  _386
REMARK  162  A    between atoms: _388  and  _390
REMARK  163  A    between atoms: _390  and  _391
REMARK  164  A    between atoms: _393  and  _395
REMARK  165  A    between atoms: _395  and  _396
REMARK  166  A    between atoms: _395  and  _398
REMARK  167  A    between atoms: _398  and  _399
REMARK  168  A    between atoms: _402  and  _404
REMARK  169  A    between atoms: _404  and  _405
REMARK  170  A    between atoms: _408  and  _410
REMARK  171  A    between atoms: _410  and  _411
REMARK  172  A    between atoms: _410  and  _413
REMARK  173  A    between atoms: _416  and  _418
REMARK  174  A    between atoms: _418  and  _419
REMARK  175  A    between atoms: _421  and  _423
REMARK  176  A    between atoms: _423  and  _424
REMARK  177  A    between atoms: _423  and  _426
REMARK  178  A    between atoms: _426  and  _427
REMARK  179  A    between atoms: _427  and  _428
REMARK  180  A    between atoms: _431  and  _433
REMARK  181  A    between atoms: _433  and  _434
REMARK  182  A    between atoms: _433  and  _436
REMARK  183  A    between atoms: _436  and  _437
REMARK  184  A    between atoms: _442  and  _443
REMARK  185  A    between atoms: _445  and  _447
REMARK  186  A    between atoms: _447  and  _448
REMARK  187  A    between atoms: _447  and  _450
REMARK  188  A    between atoms: _450  and  _451
REMARK  189  A    between atoms: _454  and  _456
REMARK  190  A    between atoms: _456  and  _457
REMARK  191  A    between atoms: _456  and  _459
REMARK  192  A    between atoms: _459  and  _460
REMARK  193  A    between atoms: _460  and  _461
REMARK  194  A    between atoms: _463  and  _465
REMARK  195  A    between atoms: _465  and  _466
REMARK  196  A    between atoms: _468  and  _470
REMARK  197  A    between atoms: _470  and  _471
REMARK  198  A    between atoms: _470  and  _473
REMARK  199  A    between atoms: _476  and  _478
REMARK  200  A    between atoms: _478  and  _479
REMARK  201  A    between atoms: _481  and  _483
REMARK  202  A    between atoms: _483  and  _484
REMARK  203  A    between atoms: _483  and  _486
REMARK  204  A    between atoms: _486  and  _487
REMARK  205  A    between atoms: _493  and  _495
REMARK  206  A    between atoms: _495  and  _496
REMARK  207  A    between atoms: _495  and  _498
REMARK  208  A    between atoms: _498  and  _499
REMARK  209  A    between atoms: _502  and  _504
REMARK  210  A    between atoms: _504  and  _505
REMARK  211  A    between atoms: _504  and  _507
REMARK  212  A    between atoms: _509  and  _511
REMARK  213  A    between atoms: _511  and  _512
REMARK  214  A    between atoms: _511  and  _514
REMARK  215  A    between atoms: _517  and  _519
REMARK  216  A    between atoms: _519  and  _520
REMARK  217  A    between atoms: _519  and  _522
REMARK  218  A    between atoms: _522  and  _523
REMARK  219  A    between atoms: _526  and  _528
REMARK  220  A    between atoms: _528  and  _529
REMARK  221  A    between atoms: _528  and  _531
REMARK  222  A    between atoms: _531  and  _532
REMARK  223  A    between atoms: _532  and  _533
REMARK  224  A    between atoms: _533  and  _534
REMARK                            x       y       z     vdW  Elec       q    Type
REMARK                         _______ _______ _______ _____ _____    ______ ____
ROOT
ATOM      1  O   HOH     1       8.986  18.112  81.591  0.00  0.00    +0.000 OA
ENDROOT
TORSDOF 0
REMARK  Name = ../refined-set-2016/4lbu/4lbu_pocket.pdb
REMARK  224 active torsions:
REMARK  status: ('A' for Active; 'I' for Inactive)
REMARK    1  A    between atoms: _1  and  _3
REMARK    2  A    between atoms: _3  and  _4
REMARK    3  A    between atoms: _3  and  _6
REMARK    4  A    between atoms: _6  and  _7
REMARK    5  A    between atoms: _7  and  _8
REMARK    6  A    between atoms: _11  and  _12
REMARK    7  A    between atoms: _17  and  _19
REMARK    8  A    between atoms: _19  and  _20
REMARK    9  A    between atoms: _19  and  _22
REMARK   10  A    between atoms: _25  and  _27
REMARK   11  A    between atoms: _27  and  _28
REMARK   12  A    between atoms: _30  and  _32
REMARK   13  A    between atoms: _32  and  _33
REMARK   14  A    between atoms: _32  and  _35
REMARK   15  A    between atoms: _35  and  _36
REMARK   16  A    between atoms: _39  and  _41
REMARK   17  A    between atoms: _41  and  _42
REMARK   18  A    between atoms: _45  and  _47
REMARK   19  A    between atoms: _47  and  _48
REMARK   20  A    between atoms: _51  and  _53
REMARK   21  A    between atoms: _53  and  _54
REMARK   22  A    between atoms: _53  and  _56
REMARK   23  A    between atoms: _56  and  _57
REMARK   24  A    between atoms: _60  and  _62
REMARK   25  A    between atoms: _62  and  _63
REMARK   26  A    between atoms: _62  and  _65
REMARK   27  A    between atoms: _65  and  _66
REMARK   28  A    between atoms: _69  and  _71
REMARK   29  A    between atoms: _71  and  _72
REMARK   30  A    between atoms: _74  and  _76
REMARK   31  A    between atoms: _76  and  _77
REMARK   32  A    between atoms: _76  and  _79
REMARK   33  A    between atoms: _79  and  _80
REMARK   34  A    between atoms: _85  and  _87
REMARK   35  A    between atoms: _87  and  _88
REMARK   36  A    between atoms: _87  and  _90
REMARK   37  A    between atoms: _90  and  _91
REMARK   38  A    between atoms: _94  and  _96
REMARK   39  A    between atoms: _96  and  _97
REMARK   40  A    between atoms: _96  and  _99
REMARK   41  A    between atoms: _99  and  _100
REMARK   42  A    between atoms: _105  and  _106
REMARK   43  A    between atoms: _108  and  _110
REMARK   44  A    between atoms: _110  and  _111
REMARK   45  A    between atoms: _110  and  _113
REMARK   46  A    between atoms: _113  and  _114
REMARK   47  A    between atoms: _119  and  _121
REMARK   48  A    between atoms: _121  and  _122
REMARK   49  A    between atoms: _121  and  _124
REMARK   50  A    between atoms: _124  and  _125
REMARK   51  A    between atoms: _128  and  _130
REMARK   52  A    between atoms: _130  and  _131
REMARK   53  A    between atoms: _130  and  _133
REMARK   54  A    between atoms: _133  and  _134
REMARK   55  A    between atoms: _137  and  _139
REMARK   56  A    between atoms: _139  and  _140
REMARK   57  A    between atoms: _139  and  _142
REMARK   58  A    between atoms: _142  and  _143
REMARK   59  A    between atoms: _146  and  _148
REMARK   60  A    between atoms: _148  and  _149
REMARK   61  A    between atoms: _148  and  _151
REMARK   62  A    between atoms: _151  and  _152
REMARK   63  A    between atoms: _155  and  _157
REMARK   64  A    between atoms: _157  and  _158
REMARK   65  A    between atoms: _157  and  _160
REMARK   66  A    between atoms: _160  and  _161
REMARK   67  A    between atoms: _163  and  _165
REMARK   68  A    between atoms: _165  and  _166
REMARK   69  A    between atoms: _168  and  _170
REMARK   70  A    between atoms: _170  and  _171
REMARK   71  A    between atoms: _173  and  _175
REMARK   72  A    between atoms: _175  and  _176
REMARK   73  A    between atoms: _175  and  _178
REMARK   74  A    between atoms: _178  and  _179
REMARK   75  A    between atoms: _184  and  _185
REMARK   76  A    between atoms: _187  and  _189
REMARK   77  A    between atoms: _189  and  _190
REMARK   78  A    between atoms: _189  and  _192
REMARK   79  A    between atoms: _192  and  _193
REMARK   80  A    between atoms: _193  and  _194
REMARK   81  A    between atoms: _199  and  _201
REMARK   82  A    between atoms: _201  and  _202
REMARK   83  A    between atoms: _201  and  _204
REMARK   84  A    between atoms: _207  and  _209
REMARK   85  A    between atoms: _209  and  _210
REMARK   86  A    between atoms: _209  and  _212
REMARK   87  A    between atoms: _212  and  _213
REMARK   88  A    between atoms: _213  and  _214
REMARK   89  A    between atoms: _216  and  _218
REMARK   90  A    between atoms: _218  and  _219
REMARK   91  A    between atoms: _218  and  _221
REMARK   92  A    between atoms: _221  and  _222
REMARK   93  A    between atoms: _224  and  _226
REMARK   94  A    between atoms: _226  and  _227
REMARK   95  A    between atoms: _226  and  _229
REMARK   96  A    between atoms: _229  and  _230
REMARK   97  A    between atoms: _230  and  _231
REMARK   98  A    between atoms: _236  and  _238
REMARK   99  A    between atoms: _238  and  _239
REMARK  100  A    between atoms: _238  and  _241
REMARK  101  A    between atoms: _241  and  _242
REMARK  102  A    between atoms: _242  and  _243
REMARK  103  A    between atoms: _245  and  _247
REMARK  104  A    between atoms: _247  and  _248
REMARK  105  A    between atoms: _251  and  _253
REMARK  106  A    between atoms: _253  and  _254
REMARK  107  A    between atoms: _253  and  _256
REMARK  108  A    between atoms: _256  and  _257
REMARK  109  A    between atoms: _263  and  _265
REMARK  110  A    between atoms: _265  and  _266
REMARK  111  A    between atoms: _265  and  _268
REMARK  112  A    between atoms: _268  and  _269
REMARK  113  A    between atoms: _272  and  _274
REMARK  114  A    between atoms: _274  and  _275
REMARK  115  A    between atoms: _274  and  _277
REMARK  116  A    between atoms: _277  and  _278
REMARK  117  A    between atoms: _278  and  _279
REMARK  118  A    between atoms: _282  and  _284
REMARK  119  A    between atoms: _284  and  _285
REMARK  120  A    between atoms: _284  and  _287
REMARK  121  A    between atoms: _289  and  _291
REMARK  122  A    between atoms: _291  and  _292
REMARK  123  A    between atoms: _291  and  _294
REMARK  124  A    between atoms: _294  and  _295
REMARK  125  A    between atoms: _298  and  _300
REMARK  126  A    between atoms: _300  and  _301
REMARK  127  A    between atoms: _300  and  _303
REMARK  128  A    between atoms: _303  and  _304
REMARK  129  A    between atoms: _306  and  _308
REMARK  130  A    between atoms: _308  and  _309
REMARK  131  A    between atoms: _308  and  _311
REMARK  132  A    between atoms: _311  and  _312
REMARK  133  A    between atoms: _315  and  _317
REMARK  134  A    between atoms: _317  and  _318
REMARK  135  A    between atoms: _317  and  _320
REMARK  136  A    between atoms: _320  and  _321
REMARK  137  A    between atoms: _321  and  _322
REMARK  138  A    between atoms: _327  and  _329
REMARK  139  A    between atoms: _329  and  _330
REMARK  140  A    between atoms: _329  and  _332
REMARK  141  A    between atoms: _332  and  _333
REMARK  142  A    between atoms: _333  and  _334
REMARK  143  A    between atoms: _339  and  _341
REMARK  144  A    between atoms: _341  and  _342
REMARK  145  A    between atoms: _344  and  _346
REMARK  146  A    between atoms: _346  and  _347
REMARK  147  A    between atoms: _346  and  _349
REMARK  148  A    between atoms: _349  and  _350
REMARK  149  A    between atoms: _352  and  _354
REMARK  150  A    between atoms: _354  and  _355
REMARK  151  A    between atoms: _354  and  _357
REMARK  152  A    between atoms: _357  and  _358
REMARK  153  A    between atoms: _358  and  _359
REMARK  154  A    between atoms: _359  and  _360
REMARK  155  A    between atoms: _369  and  _371
REMARK  156  A    between atoms: _371  and  _372
REMARK  157  A    between atoms: _375  and  _377
REMARK  158  A    between atoms: _377  and  _378
REMARK  159  A    between atoms: _377  and  _380
REMARK  160  A    between atoms: _383  and  _385
REMARK  161  A    between atoms: _385  and  _386
REMARK  162  A    between atoms: _388  and  _390
REMARK  163  A    between atoms: _390  and  _391
REMARK  164  A    between atoms: _393  and  _395
REMARK  165  A    between atoms: _395  and  _396
REMARK  166  A    between atoms: _395  and  _398
REMARK  167  A    between atoms: _398  and  _399
REMARK  168  A    between atoms: _402  and  _404
REMARK  169  A    between atoms: _404  and  _405
REMARK  170  A    between atoms: _408  and  _410
REMARK  171  A    between atoms: _410  and  _411
REMARK  172  A    between atoms: _410  and  _413
REMARK  173  A    between atoms: _416  and  _418
REMARK  174  A    between atoms: _418  and  _419
REMARK  175  A    between atoms: _421  and  _423
REMARK  176  A    between atoms: _423  and  _424
REMARK  177  A    between atoms: _423  and  _426
REMARK  178  A    between atoms: _426  and  _427
REMARK  179  A    between atoms: _427  and  _428
REMARK  180  A    between atoms: _431  and  _433
REMARK  181  A    between atoms: _433  and  _434
REMARK  182  A    between atoms: _433  and  _436
REMARK  183  A    between atoms: _436  and  _437
REMARK  184  A    between atoms: _442  and  _443
REMARK  185  A    between atoms: _445  and  _447
REMARK  186  A    between atoms: _447  and  _448
REMARK  187  A    between atoms: _447  and  _450
REMARK  188  A    between atoms: _450  and  _451
REMARK  189  A    between atoms: _454  and  _456
REMARK  190  A    between atoms: _456  and  _457
REMARK  191  A    between atoms: _456  and  _459
REMARK  192  A    between atoms: _459  and  _460
REMARK  193  A    between atoms: _460  and  _461
REMARK  194  A    between atoms: _463  and  _465
REMARK  195  A    between atoms: _465  and  _466
REMARK  196  A    between atoms: _468  and  _470
REMARK  197  A    between atoms: _470  and  _471
REMARK  198  A    between atoms: _470  and  _473
REMARK  199  A    between atoms: _476  and  _478
REMARK  200  A    between atoms: _478  and  _479
REMARK  201  A    between atoms: _481  and  _483
REMARK  202  A    between atoms: _483  and  _484
REMARK  203  A    between atoms: _483  and  _486
REMARK  204  A    between atoms: _486  and  _487
REMARK  205  A    between atoms: _493  and  _495
REMARK  206  A    between atoms: _495  and  _496
REMARK  207  A    between atoms: _495  and  _498
REMARK  208  A    between atoms: _498  and  _499
REMARK  209  A    between atoms: _502  and  _504
REMARK  210  A    between atoms: _504  and  _505
REMARK  211  A    between atoms: _504  and  _507
REMARK  212  A    between atoms: _509  and  _511
REMARK  213  A    between atoms: _511  and  _512
REMARK  214  A    between atoms: _511  and  _514
REMARK  215  A    between atoms: _517  and  _519
REMARK  216  A    between atoms: _519  and  _520
REMARK  217  A    between atoms: _519  and  _522
REMARK  218  A    between atoms: _522  and  _523
REMARK  219  A    between atoms: _526  and  _528
REMARK  220  A    between atoms: _528  and  _529
REMARK  221  A    between atoms: _528  and  _531
REMARK  222  A    between atoms: _531  and  _532
REMARK  223  A    between atoms: _532  and  _533
REMARK  224  A    between atoms: _533  and  _534
REMARK                            x       y       z     vdW  Elec       q    Type
REMARK                         _______ _______ _______ _____ _____    ______ ____
ROOT
ATOM      1  O   HOH     1       9.245  18.149  78.709  0.00  0.00    +0.000 OA
ENDROOT
TORSDOF 0
REMARK  Name = ../refined-set-2016/4lbu/4lbu_pocket.pdb
REMARK  224 active torsions:
REMARK  status: ('A' for Active; 'I' for Inactive)
REMARK    1  A    between atoms: _1  and  _3
REMARK    2  A    between atoms: _3  and  _4
REMARK    3  A    between atoms: _3  and  _6
REMARK    4  A    between atoms: _6  and  _7
REMARK    5  A    between atoms: _7  and  _8
REMARK    6  A    between atoms: _11  and  _12
REMARK    7  A    between atoms: _17  and  _19
REMARK    8  A    between atoms: _19  and  _20
REMARK    9  A    between atoms: _19  and  _22
REMARK   10  A    between atoms: _25  and  _27
REMARK   11  A    between atoms: _27  and  _28
REMARK   12  A    between atoms: _30  and  _32
REMARK   13  A    between atoms: _32  and  _33
REMARK   14  A    between atoms: _32  and  _35
REMARK   15  A    between atoms: _35  and  _36
REMARK   16  A    between atoms: _39  and  _41
REMARK   17  A    between atoms: _41  and  _42
REMARK   18  A    between atoms: _45  and  _47
REMARK   19  A    between atoms: _47  and  _48
REMARK   20  A    between atoms: _51  and  _53
REMARK   21  A    between atoms: _53  and  _54
REMARK   22  A    between atoms: _53  and  _56
REMARK   23  A    between atoms: _56  and  _57
REMARK   24  A    between atoms: _60  and  _62
REMARK   25  A    between atoms: _62  and  _63
REMARK   26  A    between atoms: _62  and  _65
REMARK   27  A    between atoms: _65  and  _66
REMARK   28  A    between atoms: _69  and  _71
REMARK   29  A    between atoms: _71  and  _72
REMARK   30  A    between atoms: _74  and  _76
REMARK   31  A    between atoms: _76  and  _77
REMARK   32  A    between atoms: _76  and  _79
REMARK   33  A    between atoms: _79  and  _80
REMARK   34  A    between atoms: _85  and  _87
REMARK   35  A    between atoms: _87  and  _88
REMARK   36  A    between atoms: _87  and  _90
REMARK   37  A    between atoms: _90  and  _91
REMARK   38  A    between atoms: _94  and  _96
REMARK   39  A    between atoms: _96  and  _97
REMARK   40  A    between atoms: _96  and  _99
REMARK   41  A    between atoms: _99  and  _100
REMARK   42  A    between atoms: _105  and  _106
REMARK   43  A    between atoms: _108  and  _110
REMARK   44  A    between atoms: _110  and  _111
REMARK   45  A    between atoms: _110  and  _113
REMARK   46  A    between atoms: _113  and  _114
REMARK   47  A    between atoms: _119  and  _121
REMARK   48  A    between atoms: _121  and  _122
REMARK   49  A    between atoms: _121  and  _124
REMARK   50  A    between atoms: _124  and  _125
REMARK   51  A    between atoms: _128  and  _130
REMARK   52  A    between atoms: _130  and  _131
REMARK   53  A    between atoms: _130  and  _133
REMARK   54  A    between atoms: _133  and  _134
REMARK   55  A    between atoms: _137  and  _139
REMARK   56  A    between atoms: _139  and  _140
REMARK   57  A    between atoms: _139  and  _142
REMARK   58  A    between atoms: _142  and  _143
REMARK   59  A    between atoms: _146  and  _148
REMARK   60  A    between atoms: _148  and  _149
REMARK   61  A    between atoms: _148  and  _151
REMARK   62  A    between atoms: _151  and  _152
REMARK   63  A    between atoms: _155  and  _157
REMARK   64  A    between atoms: _157  and  _158
REMARK   65  A    between atoms: _157  and  _160
REMARK   66  A    between atoms: _160  and  _161
REMARK   67  A    between atoms: _163  and  _165
REMARK   68  A    between atoms: _165  and  _166
REMARK   69  A    between atoms: _168  and  _170
REMARK   70  A    between atoms: _170  and  _171
REMARK   71  A    between atoms: _173  and  _175
REMARK   72  A    between atoms: _175  and  _176
REMARK   73  A    between atoms: _175  and  _178
REMARK   74  A    between atoms: _178  and  _179
REMARK   75  A    between atoms: _184  and  _185
REMARK   76  A    between atoms: _187  and  _189
REMARK   77  A    between atoms: _189  and  _190
REMARK   78  A    between atoms: _189  and  _192
REMARK   79  A    between atoms: _192  and  _193
REMARK   80  A    between atoms: _193  and  _194
REMARK   81  A    between atoms: _199  and  _201
REMARK   82  A    between atoms: _201  and  _202
REMARK   83  A    between atoms: _201  and  _204
REMARK   84  A    between atoms: _207  and  _209
REMARK   85  A    between atoms: _209  and  _210
REMARK   86  A    between atoms: _209  and  _212
REMARK   87  A    between atoms: _212  and  _213
REMARK   88  A    between atoms: _213  and  _214
REMARK   89  A    between atoms: _216  and  _218
REMARK   90  A    between atoms: _218  and  _219
REMARK   91  A    between atoms: _218  and  _221
REMARK   92  A    between atoms: _221  and  _222
REMARK   93  A    between atoms: _224  and  _226
REMARK   94  A    between atoms: _226  and  _227
REMARK   95  A    between atoms: _226  and  _229
REMARK   96  A    between atoms: _229  and  _230
REMARK   97  A    between atoms: _230  and  _231
REMARK   98  A    between atoms: _236  and  _238
REMARK   99  A    between atoms: _238  and  _239
REMARK  100  A    between atoms: _238  and  _241
REMARK  101  A    between atoms: _241  and  _242
REMARK  102  A    between atoms: _242  and  _243
REMARK  103  A    between atoms: _245  and  _247
REMARK  104  A    between atoms: _247  and  _248
REMARK  105  A    between atoms: _251  and  _253
REMARK  106  A    between atoms: _253  and  _254
REMARK  107  A    between atoms: _253  and  _256
REMARK  108  A    between atoms: _256  and  _257
REMARK  109  A    between atoms: _263  and  _265
REMARK  110  A    between atoms: _265  and  _266
REMARK  111  A    between atoms: _265  and  _268
REMARK  112  A    between atoms: _268  and  _269
REMARK  113  A    between atoms: _272  and  _274
REMARK  114  A    between atoms: _274  and  _275
REMARK  115  A    between atoms: _274  and  _277
REMARK  116  A    between atoms: _277  and  _278
REMARK  117  A    between atoms: _278  and  _279
REMARK  118  A    between atoms: _282  and  _284
REMARK  119  A    between atoms: _284  and  _285
REMARK  120  A    between atoms: _284  and  _287
REMARK  121  A    between atoms: _289  and  _291
REMARK  122  A    between atoms: _291  and  _292
REMARK  123  A    between atoms: _291  and  _294
REMARK  124  A    between atoms: _294  and  _295
REMARK  125  A    between atoms: _298  and  _300
REMARK  126  A    between atoms: _300  and  _301
REMARK  127  A    between atoms: _300  and  _303
REMARK  128  A    between atoms: _303  and  _304
REMARK  129  A    between atoms: _306  and  _308
REMARK  130  A    between atoms: _308  and  _309
REMARK  131  A    between atoms: _308  and  _311
REMARK  132  A    between atoms: _311  and  _312
REMARK  133  A    between atoms: _315  and  _317
REMARK  134  A    between atoms: _317  and  _318
REMARK  135  A    between atoms: _317  and  _320
REMARK  136  A    between atoms: _320  and  _321
REMARK  137  A    between atoms: _321  and  _322
REMARK  138  A    between atoms: _327  and  _329
REMARK  139  A    between atoms: _329  and  _330
REMARK  140  A    between atoms: _329  and  _332
REMARK  141  A    between atoms: _332  and  _333
REMARK  142  A    between atoms: _333  and  _334
REMARK  143  A    between atoms: _339  and  _341
REMARK  144  A    between atoms: _341  and  _342
REMARK  145  A    between atoms: _344  and  _346
REMARK  146  A    between atoms: _346  and  _347
REMARK  147  A    between atoms: _346  and  _349
REMARK  148  A    between atoms: _349  and  _350
REMARK  149  A    between atoms: _352  and  _354
REMARK  150  A    between atoms: _354  and  _355
REMARK  151  A    between atoms: _354  and  _357
REMARK  152  A    between atoms: _357  and  _358
REMARK  153  A    between atoms: _358  and  _359
REMARK  154  A    between atoms: _359  and  _360
REMARK  155  A    between atoms: _369  and  _371
REMARK  156  A    between atoms: _371  and  _372
REMARK  157  A    between atoms: _375  and  _377
REMARK  158  A    between atoms: _377  and  _378
REMARK  159  A    between atoms: _377  and  _380
REMARK  160  A    between atoms: _383  and  _385
REMARK  161  A    between atoms: _385  and  _386
REMARK  162  A    between atoms: _388  and  _390
REMARK  163  A    between atoms: _390  and  _391
REMARK  164  A    between atoms: _393  and  _395
REMARK  165  A    between atoms: _395  and  _396
REMARK  166  A    between atoms: _395  and  _398
REMARK  167  A    between atoms: _398  and  _399
REMARK  168  A    between atoms: _402  and  _404
REMARK  169  A    between atoms: _404  and  _405
REMARK  170  A    between atoms: _408  and  _410
REMARK  171  A    between atoms: _410  and  _411
REMARK  172  A    between atoms: _410  and  _413
REMARK  173  A    between atoms: _416  and  _418
REMARK  174  A    between atoms: _418  and  _419
REMARK  175  A    between atoms: _421  and  _423
REMARK  176  A    between atoms: _423  and  _424
REMARK  177  A    between atoms: _423  and  _426
REMARK  178  A    between atoms: _426  and  _427
REMARK  179  A    between atoms: _427  and  _428
REMARK  180  A    between atoms: _431  and  _433
REMARK  181  A    between atoms: _433  and  _434
REMARK  182  A    between atoms: _433  and  _436
REMARK  183  A    between atoms: _436  and  _437
REMARK  184  A    between atoms: _442  and  _443
REMARK  185  A    between atoms: _445  and  _447
REMARK  186  A    between atoms: _447  and  _448
REMARK  187  A    between atoms: _447  and  _450
REMARK  188  A    between atoms: _450  and  _451
REMARK  189  A    between atoms: _454  and  _456
REMARK  190  A    between atoms: _456  and  _457
REMARK  191  A    between atoms: _456  and  _459
REMARK  192  A    between atoms: _459  and  _460
REMARK  193  A    between atoms: _460  and  _461
REMARK  194  A    between atoms: _463  and  _465
REMARK  195  A    between atoms: _465  and  _466
REMARK  196  A    between atoms: _468  and  _470
REMARK  197  A    between atoms: _470  and  _471
REMARK  198  A    between atoms: _470  and  _473
REMARK  199  A    between atoms: _476  and  _478
REMARK  200  A    between atoms: _478  and  _479
REMARK  201  A    between atoms: _481  and  _483
REMARK  202  A    between atoms: _483  and  _484
REMARK  203  A    between atoms: _483  and  _486
REMARK  204  A    between atoms: _486  and  _487
REMARK  205  A    between atoms: _493  and  _495
REMARK  206  A    between atoms: _495  and  _496
REMARK  207  A    between atoms: _495  and  _498
REMARK  208  A    between atoms: _498  and  _499
REMARK  209  A    between atoms: _502  and  _504
REMARK  210  A    between atoms: _504  and  _505
REMARK  211  A    between atoms: _504  and  _507
REMARK  212  A    between atoms: _509  and  _511
REMARK  213  A    between atoms: _511  and  _512
REMARK  214  A    between atoms: _511  and  _514
REMARK  215  A    between atoms: _517  and  _519
REMARK  216  A    between atoms: _519  and  _520
REMARK  217  A    between atoms: _519  and  _522
REMARK  218  A    between atoms: _522  and  _523
REMARK  219  A    between atoms: _526  and  _528
REMARK  220  A    between atoms: _528  and  _529
REMARK  221  A    between atoms: _528  and  _531
REMARK  222  A    between atoms: _531  and  _532
REMARK  223  A    between atoms: _532  and  _533
REMARK  224  A    between atoms: _533  and  _534
REMARK                            x       y       z     vdW  Elec       q    Type
REMARK                         _______ _______ _______ _____ _____    ______ ____
ROOT
ATOM      1  O   HOH     1       0.639  17.451  83.010  0.00  0.00    +0.000 OA
ENDROOT
TORSDOF 0
REMARK  Name = ../refined-set-2016/4lbu/4lbu_pocket.pdb
REMARK  224 active torsions:
REMARK  status: ('A' for Active; 'I' for Inactive)
REMARK    1  A    between atoms: _1  and  _3
REMARK    2  A    between atoms: _3  and  _4
REMARK    3  A    between atoms: _3  and  _6
REMARK    4  A    between atoms: _6  and  _7
REMARK    5  A    between atoms: _7  and  _8
REMARK    6  A    between atoms: _11  and  _12
REMARK    7  A    between atoms: _17  and  _19
REMARK    8  A    between atoms: _19  and  _20
REMARK    9  A    between atoms: _19  and  _22
REMARK   10  A    between atoms: _25  and  _27
REMARK   11  A    between atoms: _27  and  _28
REMARK   12  A    between atoms: _30  and  _32
REMARK   13  A    between atoms: _32  and  _33
REMARK   14  A    between atoms: _32  and  _35
REMARK   15  A    between atoms: _35  and  _36
REMARK   16  A    between atoms: _39  and  _41
REMARK   17  A    between atoms: _41  and  _42
REMARK   18  A    between atoms: _45  and  _47
REMARK   19  A    between atoms: _47  and  _48
REMARK   20  A    between atoms: _51  and  _53
REMARK   21  A    between atoms: _53  and  _54
REMARK   22  A    between atoms: _53  and  _56
REMARK   23  A    between atoms: _56  and  _57
REMARK   24  A    between atoms: _60  and  _62
REMARK   25  A    between atoms: _62  and  _63
REMARK   26  A    between atoms: _62  and  _65
REMARK   27  A    between atoms: _65  and  _66
REMARK   28  A    between atoms: _69  and  _71
REMARK   29  A    between atoms: _71  and  _72
REMARK   30  A    between atoms: _74  and  _76
REMARK   31  A    between atoms: _76  and  _77
REMARK   32  A    between atoms: _76  and  _79
REMARK   33  A    between atoms: _79  and  _80
REMARK   34  A    between atoms: _85  and  _87
REMARK   35  A    between atoms: _87  and  _88
REMARK   36  A    between atoms: _87  and  _90
REMARK   37  A    between atoms: _90  and  _91
REMARK   38  A    between atoms: _94  and  _96
REMARK   39  A    between atoms: _96  and  _97
REMARK   40  A    between atoms: _96  and  _99
REMARK   41  A    between atoms: _99  and  _100
REMARK   42  A    between atoms: _105  and  _106
REMARK   43  A    between atoms: _108  and  _110
REMARK   44  A    between atoms: _110  and  _111
REMARK   45  A    between atoms: _110  and  _113
REMARK   46  A    between atoms: _113  and  _114
REMARK   47  A    between atoms: _119  and  _121
REMARK   48  A    between atoms: _121  and  _122
REMARK   49  A    between atoms: _121  and  _124
REMARK   50  A    between atoms: _124  and  _125
REMARK   51  A    between atoms: _128  and  _130
REMARK   52  A    between atoms: _130  and  _131
REMARK   53  A    between atoms: _130  and  _133
REMARK   54  A    between atoms: _133  and  _134
REMARK   55  A    between atoms: _137  and  _139
REMARK   56  A    between atoms: _139  and  _140
REMARK   57  A    between atoms: _139  and  _142
REMARK   58  A    between atoms: _142  and  _143
REMARK   59  A    between atoms: _146  and  _148
REMARK   60  A    between atoms: _148  and  _149
REMARK   61  A    between atoms: _148  and  _151
REMARK   62  A    between atoms: _151  and  _152
REMARK   63  A    between atoms: _155  and  _157
REMARK   64  A    between atoms: _157  and  _158
REMARK   65  A    between atoms: _157  and  _160
REMARK   66  A    between atoms: _160  and  _161
REMARK   67  A    between atoms: _163  and  _165
REMARK   68  A    between atoms: _165  and  _166
REMARK   69  A    between atoms: _168  and  _170
REMARK   70  A    between atoms: _170  and  _171
REMARK   71  A    between atoms: _173  and  _175
REMARK   72  A    between atoms: _175  and  _176
REMARK   73  A    between atoms: _175  and  _178
REMARK   74  A    between atoms: _178  and  _179
REMARK   75  A    between atoms: _184  and  _185
REMARK   76  A    between atoms: _187  and  _189
REMARK   77  A    between atoms: _189  and  _190
REMARK   78  A    between atoms: _189  and  _192
REMARK   79  A    between atoms: _192  and  _193
REMARK   80  A    between atoms: _193  and  _194
REMARK   81  A    between atoms: _199  and  _201
REMARK   82  A    between atoms: _201  and  _202
REMARK   83  A    between atoms: _201  and  _204
REMARK   84  A    between atoms: _207  and  _209
REMARK   85  A    between atoms: _209  and  _210
REMARK   86  A    between atoms: _209  and  _212
REMARK   87  A    between atoms: _212  and  _213
REMARK   88  A    between atoms: _213  and  _214
REMARK   89  A    between atoms: _216  and  _218
REMARK   90  A    between atoms: _218  and  _219
REMARK   91  A    between atoms: _218  and  _221
REMARK   92  A    between atoms: _221  and  _222
REMARK   93  A    between atoms: _224  and  _226
REMARK   94  A    between atoms: _226  and  _227
REMARK   95  A    between atoms: _226  and  _229
REMARK   96  A    between atoms: _229  and  _230
REMARK   97  A    between atoms: _230  and  _231
REMARK   98  A    between atoms: _236  and  _238
REMARK   99  A    between atoms: _238  and  _239
REMARK  100  A    between atoms: _238  and  _241
REMARK  101  A    between atoms: _241  and  _242
REMARK  102  A    between atoms: _242  and  _243
REMARK  103  A    between atoms: _245  and  _247
REMARK  104  A    between atoms: _247  and  _248
REMARK  105  A    between atoms: _251  and  _253
REMARK  106  A    between atoms: _253  and  _254
REMARK  107  A    between atoms: _253  and  _256
REMARK  108  A    between atoms: _256  and  _257
REMARK  109  A    between atoms: _263  and  _265
REMARK  110  A    between atoms: _265  and  _266
REMARK  111  A    between atoms: _265  and  _268
REMARK  112  A    between atoms: _268  and  _269
REMARK  113  A    between atoms: _272  and  _274
REMARK  114  A    between atoms: _274  and  _275
REMARK  115  A    between atoms: _274  and  _277
REMARK  116  A    between atoms: _277  and  _278
REMARK  117  A    between atoms: _278  and  _279
REMARK  118  A    between atoms: _282  and  _284
REMARK  119  A    between atoms: _284  and  _285
REMARK  120  A    between atoms: _284  and  _287
REMARK  121  A    between atoms: _289  and  _291
REMARK  122  A    between atoms: _291  and  _292
REMARK  123  A    between atoms: _291  and  _294
REMARK  124  A    between atoms: _294  and  _295
REMARK  125  A    between atoms: _298  and  _300
REMARK  126  A    between atoms: _300  and  _301
REMARK  127  A    between atoms: _300  and  _303
REMARK  128  A    between atoms: _303  and  _304
REMARK  129  A    between atoms: _306  and  _308
REMARK  130  A    between atoms: _308  and  _309
REMARK  131  A    between atoms: _308  and  _311
REMARK  132  A    between atoms: _311  and  _312
REMARK  133  A    between atoms: _315  and  _317
REMARK  134  A    between atoms: _317  and  _318
REMARK  135  A    between atoms: _317  and  _320
REMARK  136  A    between atoms: _320  and  _321
REMARK  137  A    between atoms: _321  and  _322
REMARK  138  A    between atoms: _327  and  _329
REMARK  139  A    between atoms: _329  and  _330
REMARK  140  A    between atoms: _329  and  _332
REMARK  141  A    between atoms: _332  and  _333
REMARK  142  A    between atoms: _333  and  _334
REMARK  143  A    between atoms: _339  and  _341
REMARK  144  A    between atoms: _341  and  _342
REMARK  145  A    between atoms: _344  and  _346
REMARK  146  A    between atoms: _346  and  _347
REMARK  147  A    between atoms: _346  and  _349
REMARK  148  A    between atoms: _349  and  _350
REMARK  149  A    between atoms: _352  and  _354
REMARK  150  A    between atoms: _354  and  _355
REMARK  151  A    between atoms: _354  and  _357
REMARK  152  A    between atoms: _357  and  _358
REMARK  153  A    between atoms: _358  and  _359
REMARK  154  A    between atoms: _359  and  _360
REMARK  155  A    between atoms: _369  and  _371
REMARK  156  A    between atoms: _371  and  _372
REMARK  157  A    between atoms: _375  and  _377
REMARK  158  A    between atoms: _377  and  _378
REMARK  159  A    between atoms: _377  and  _380
REMARK  160  A    between atoms: _383  and  _385
REMARK  161  A    between atoms: _385  and  _386
REMARK  162  A    between atoms: _388  and  _390
REMARK  163  A    between atoms: _390  and  _391
REMARK  164  A    between atoms: _393  and  _395
REMARK  165  A    between atoms: _395  and  _396
REMARK  166  A    between atoms: _395  and  _398
REMARK  167  A    between atoms: _398  and  _399
REMARK  168  A    between atoms: _402  and  _404
REMARK  169  A    between atoms: _404  and  _405
REMARK  170  A    between atoms: _408  and  _410
REMARK  171  A    between atoms: _410  and  _411
REMARK  172  A    between atoms: _410  and  _413
REMARK  173  A    between atoms: _416  and  _418
REMARK  174  A    between atoms: _418  and  _419
REMARK  175  A    between atoms: _421  and  _423
REMARK  176  A    between atoms: _423  and  _424
REMARK  177  A    between atoms: _423  and  _426
REMARK  178  A    between atoms: _426  and  _427
REMARK  179  A    between atoms: _427  and  _428
REMARK  180  A    between atoms: _431  and  _433
REMARK  181  A    between atoms: _433  and  _434
REMARK  182  A    between atoms: _433  and  _436
REMARK  183  A    between atoms: _436  and  _437
REMARK  184  A    between atoms: _442  and  _443
REMARK  185  A    between atoms: _445  and  _447
REMARK  186  A    between atoms: _447  and  _448
REMARK  187  A    between atoms: _447  and  _450
REMARK  188  A    between atoms: _450  and  _451
REMARK  189  A    between atoms: _454  and  _456
REMARK  190  A    between atoms: _456  and  _457
REMARK  191  A    between atoms: _456  and  _459
REMARK  192  A    between atoms: _459  and  _460
REMARK  193  A    between atoms: _460  and  _461
REMARK  194  A    between atoms: _463  and  _465
REMARK  195  A    between atoms: _465  and  _466
REMARK  196  A    between atoms: _468  and  _470
REMARK  197  A    between atoms: _470  and  _471
REMARK  198  A    between atoms: _470  and  _473
REMARK  199  A    between atoms: _476  and  _478
REMARK  200  A    between atoms: _478  and  _479
REMARK  201  A    between atoms: _481  and  _483
REMARK  202  A    between atoms: _483  and  _484
REMARK  203  A    between atoms: _483  and  _486
REMARK  204  A    between atoms: _486  and  _487
REMARK  205  A    between atoms: _493  and  _495
REMARK  206  A    between atoms: _495  and  _496
REMARK  207  A    between atoms: _495  and  _498
REMARK  208  A    between atoms: _498  and  _499
REMARK  209  A    between atoms: _502  and  _504
REMARK  210  A    between atoms: _504  and  _505
REMARK  211  A    between atoms: _504  and  _507
REMARK  212  A    between atoms: _509  and  _511
REMARK  213  A    between atoms: _511  and  _512
REMARK  214  A    between atoms: _511  and  _514
REMARK  215  A    between atoms: _517  and  _519
REMARK  216  A    between atoms: _519  and  _520
REMARK  217  A    between atoms: _519  and  _522
REMARK  218  A    between atoms: _522  and  _523
REMARK  219  A    between atoms: _526  and  _528
REMARK  220  A    between atoms: _528  and  _529
REMARK  221  A    between atoms: _528  and  _531
REMARK  222  A    between atoms: _531  and  _532
REMARK  223  A    between atoms: _532  and  _533
REMARK  224  A    between atoms: _533  and  _534
REMARK                            x       y       z     vdW  Elec       q    Type
REMARK                         _______ _______ _______ _____ _____    ______ ____
ROOT
ATOM      1  O   HOH     1       0.919  18.163  78.740  0.00  0.00    +0.000 OA
ENDROOT
TORSDOF 0
