REMARK  Name = ../refined-set-2016/4csd/4csd_pocket.pdb
REMARK  108 active torsions:
REMARK  status: ('A' for Active; 'I' for Inactive)
REMARK    1  A    between atoms: _1  and  _3
REMARK    2  A    between atoms: _3  and  _4
REMARK    3  A    between atoms: _3  and  _6
REMARK    4  A    between atoms: _6  and  _7
REMARK    5  A    between atoms: _10  and  _12
REMARK    6  A    between atoms: _12  and  _13
REMARK    7  A    between atoms: _12  and  _15
REMARK    8  A    between atoms: _15  and  _16
REMARK    9  A    between atoms: _26  and  _28
REMARK   10  A    between atoms: _28  and  _29
REMARK   11  A    between atoms: _28  and  _31
REMARK   12  A    between atoms: _31  and  _32
REMARK   13  A    between atoms: _34  and  _36
REMARK   14  A    between atoms: _36  and  _37
REMARK   15  A    between atoms: _36  and  _39
REMARK   16  A    between atoms: _39  and  _40
REMARK   17  A    between atoms: _43  and  _45
REMARK   18  A    between atoms: _45  and  _46
REMARK   19  A    between atoms: _45  and  _48
REMARK   20  A    between atoms: _48  and  _49
REMARK   21  A    between atoms: _49  and  _50
REMARK   22  A    between atoms: _50  and  _51
REMARK   23  A    between atoms: _60  and  _62
REMARK   24  A    between atoms: _62  and  _63
REMARK   25  A    between atoms: _62  and  _65
REMARK   26  A    between atoms: _68  and  _70
REMARK   27  A    between atoms: _70  and  _71
REMARK   28  A    between atoms: _70  and  _73
REMARK   29  A    between atoms: _73  and  _74
REMARK   30  A    between atoms: _79  and  _80
REMARK   31  A    between atoms: _82  and  _84
REMARK   32  A    between atoms: _84  and  _85
REMARK   33  A    between atoms: _84  and  _87
REMARK   34  A    between atoms: _87  and  _88
REMARK   35  A    between atoms: _88  and  _89
REMARK   36  A    between atoms: _92  and  _94
REMARK   37  A    between atoms: _94  and  _95
REMARK   38  A    between atoms: _94  and  _97
REMARK   39  A    between atoms: _97  and  _98
REMARK   40  A    between atoms: _98  and  _99
REMARK   41  A    between atoms: _99  and  _100
REMARK   42  A    between atoms: _109  and  _111
REMARK   43  A    between atoms: _111  and  _112
REMARK   44  A    between atoms: _111  and  _114
REMARK   45  A    between atoms: _116  and  _118
REMARK   46  A    between atoms: _118  and  _119
REMARK   47  A    between atoms: _118  and  _121
REMARK   48  A    between atoms: _121  and  _122
REMARK   49  A    between atoms: _132  and  _134
REMARK   50  A    between atoms: _134  and  _135
REMARK   51  A    between atoms: _134  and  _137
REMARK   52  A    between atoms: _137  and  _138
REMARK   53  A    between atoms: _141  and  _143
REMARK   54  A    between atoms: _143  and  _144
REMARK   55  A    between atoms: _143  and  _146
REMARK   56  A    between atoms: _146  and  _147
REMARK   57  A    between atoms: _152  and  _153
REMARK   58  A    between atoms: _155  and  _157
REMARK   59  A    between atoms: _157  and  _158
REMARK   60  A    between atoms: _157  and  _160
REMARK   61  A    between atoms: _160  and  _161
REMARK   62  A    between atoms: _164  and  _166
REMARK   63  A    between atoms: _166  and  _167
REMARK   64  A    between atoms: _169  and  _171
REMARK   65  A    between atoms: _171  and  _172
REMARK   66  A    between atoms: _175  and  _177
REMARK   67  A    between atoms: _177  and  _178
REMARK   68  A    between atoms: _177  and  _180
REMARK   69  A    between atoms: _180  and  _181
REMARK   70  A    between atoms: _187  and  _189
REMARK   71  A    between atoms: _189  and  _190
REMARK   72  A    between atoms: _189  and  _192
REMARK   73  A    between atoms: _192  and  _193
REMARK   74  A    between atoms: _198  and  _200
REMARK   75  A    between atoms: _200  and  _201
REMARK   76  A    between atoms: _200  and  _203
REMARK   77  A    between atoms: _203  and  _204
REMARK   78  A    between atoms: _207  and  _209
REMARK   79  A    between atoms: _209  and  _210
REMARK   80  A    between atoms: _209  and  _212
REMARK   81  A    between atoms: _212  and  _213
REMARK   82  A    between atoms: _218  and  _220
REMARK   83  A    between atoms: _220  and  _221
REMARK   84  A    between atoms: _220  and  _223
REMARK   85  A    between atoms: _223  and  _224
REMARK   86  A    between atoms: _227  and  _229
REMARK   87  A    between atoms: _229  and  _230
REMARK   88  A    between atoms: _229  and  _232
REMARK   89  A    between atoms: _235  and  _237
REMARK   90  A    between atoms: _237  and  _238
REMARK   91  A    between atoms: _237  and  _240
REMARK   92  A    between atoms: _240  and  _241
REMARK   93  A    between atoms: _251  and  _253
REMARK   94  A    between atoms: _253  and  _254
REMARK   95  A    between atoms: _253  and  _256
REMARK   96  A    between atoms: _256  and  _257
REMARK   97  A    between atoms: _260  and  _262
REMARK   98  A    between atoms: _262  and  _263
REMARK   99  A    between atoms: _265  and  _267
REMARK  100  A    between atoms: _267  and  _268
REMARK  101  A    between atoms: _267  and  _270
REMARK  102  A    between atoms: _270  and  _271
REMARK  103  A    between atoms: _276  and  _278
REMARK  104  A    between atoms: _278  and  _279
REMARK  105  A    between atoms: _281  and  _283
REMARK  106  A    between atoms: _283  and  _284
REMARK  107  A    between atoms: _283  and  _286
REMARK  108  A    between atoms: _286  and  _287
REMARK                            x       y       z     vdW  Elec       q    Type
REMARK                         _______ _______ _______ _____ _____    ______ ____
ROOT
ATOM      1  CA  THR A   1      -7.317 -13.579  33.500  0.00  0.00    +0.160 C 
ENDROOT
BRANCH   1   2
ATOM      2  N   THR A   1      -6.029 -12.903  33.554  0.00  0.00    -0.237 NA
ATOM      3  H   THR A   1      -6.013 -11.889  33.785  0.00  0.00    +0.142 HD
ENDBRANCH   1   2
BRANCH   1   4
ATOM      4  CB  THR A   1      -7.729 -14.106  34.893  0.00  0.00    +0.134 C 
ATOM      5  CG2 THR A   1      -8.112 -13.012  35.837  0.00  0.00    +0.034 C 
BRANCH   4   6
ATOM      6  OG1 THR A   1      -8.797 -15.052  34.785  0.00  0.00    -0.383 OA
ATOM      7  HG1 THR A   1      -9.043 -15.375  35.688  0.00  0.00    +0.210 HD
ENDBRANCH   4   6
ENDBRANCH   1   4
BRANCH   1   8
ATOM      8  C   THR A   1      -8.356 -12.624  32.888  0.00  0.00    +0.227 C 
ATOM      9  O   THR A   1      -8.185 -11.416  32.900  0.00  0.00    -0.287 OA
ENDBRANCH   1   8
TORSDOF 4
REMARK  Name = ../refined-set-2016/4csd/4csd_pocket.pdb
REMARK  108 active torsions:
REMARK  status: ('A' for Active; 'I' for Inactive)
REMARK    1  A    between atoms: _1  and  _3
REMARK    2  A    between atoms: _3  and  _4
REMARK    3  A    between atoms: _3  and  _6
REMARK    4  A    between atoms: _6  and  _7
REMARK    5  A    between atoms: _10  and  _12
REMARK    6  A    between atoms: _12  and  _13
REMARK    7  A    between atoms: _12  and  _15
REMARK    8  A    between atoms: _15  and  _16
REMARK    9  A    between atoms: _26  and  _28
REMARK   10  A    between atoms: _28  and  _29
REMARK   11  A    between atoms: _28  and  _31
REMARK   12  A    between atoms: _31  and  _32
REMARK   13  A    between atoms: _34  and  _36
REMARK   14  A    between atoms: _36  and  _37
REMARK   15  A    between atoms: _36  and  _39
REMARK   16  A    between atoms: _39  and  _40
REMARK   17  A    between atoms: _43  and  _45
REMARK   18  A    between atoms: _45  and  _46
REMARK   19  A    between atoms: _45  and  _48
REMARK   20  A    between atoms: _48  and  _49
REMARK   21  A    between atoms: _49  and  _50
REMARK   22  A    between atoms: _50  and  _51
REMARK   23  A    between atoms: _60  and  _62
REMARK   24  A    between atoms: _62  and  _63
REMARK   25  A    between atoms: _62  and  _65
REMARK   26  A    between atoms: _68  and  _70
REMARK   27  A    between atoms: _70  and  _71
REMARK   28  A    between atoms: _70  and  _73
REMARK   29  A    between atoms: _73  and  _74
REMARK   30  A    between atoms: _79  and  _80
REMARK   31  A    between atoms: _82  and  _84
REMARK   32  A    between atoms: _84  and  _85
REMARK   33  A    between atoms: _84  and  _87
REMARK   34  A    between atoms: _87  and  _88
REMARK   35  A    between atoms: _88  and  _89
REMARK   36  A    between atoms: _92  and  _94
REMARK   37  A    between atoms: _94  and  _95
REMARK   38  A    between atoms: _94  and  _97
REMARK   39  A    between atoms: _97  and  _98
REMARK   40  A    between atoms: _98  and  _99
REMARK   41  A    between atoms: _99  and  _100
REMARK   42  A    between atoms: _109  and  _111
REMARK   43  A    between atoms: _111  and  _112
REMARK   44  A    between atoms: _111  and  _114
REMARK   45  A    between atoms: _116  and  _118
REMARK   46  A    between atoms: _118  and  _119
REMARK   47  A    between atoms: _118  and  _121
REMARK   48  A    between atoms: _121  and  _122
REMARK   49  A    between atoms: _132  and  _134
REMARK   50  A    between atoms: _134  and  _135
REMARK   51  A    between atoms: _134  and  _137
REMARK   52  A    between atoms: _137  and  _138
REMARK   53  A    between atoms: _141  and  _143
REMARK   54  A    between atoms: _143  and  _144
REMARK   55  A    between atoms: _143  and  _146
REMARK   56  A    between atoms: _146  and  _147
REMARK   57  A    between atoms: _152  and  _153
REMARK   58  A    between atoms: _155  and  _157
REMARK   59  A    between atoms: _157  and  _158
REMARK   60  A    between atoms: _157  and  _160
REMARK   61  A    between atoms: _160  and  _161
REMARK   62  A    between atoms: _164  and  _166
REMARK   63  A    between atoms: _166  and  _167
REMARK   64  A    between atoms: _169  and  _171
REMARK   65  A    between atoms: _171  and  _172
REMARK   66  A    between atoms: _175  and  _177
REMARK   67  A    between atoms: _177  and  _178
REMARK   68  A    between atoms: _177  and  _180
REMARK   69  A    between atoms: _180  and  _181
REMARK   70  A    between atoms: _187  and  _189
REMARK   71  A    between atoms: _189  and  _190
REMARK   72  A    between atoms: _189  and  _192
REMARK   73  A    between atoms: _192  and  _193
REMARK   74  A    between atoms: _198  and  _200
REMARK   75  A    between atoms: _200  and  _201
REMARK   76  A    between atoms: _200  and  _203
REMARK   77  A    between atoms: _203  and  _204
REMARK   78  A    between atoms: _207  and  _209
REMARK   79  A    between atoms: _209  and  _210
REMARK   80  A    between atoms: _209  and  _212
REMARK   81  A    between atoms: _212  and  _213
REMARK   82  A    between atoms: _218  and  _220
REMARK   83  A    between atoms: _220  and  _221
REMARK   84  A    between atoms: _220  and  _223
REMARK   85  A    between atoms: _223  and  _224
REMARK   86  A    between atoms: _227  and  _229
REMARK   87  A    between atoms: _229  and  _230
REMARK   88  A    between atoms: _229  and  _232
REMARK   89  A    between atoms: _235  and  _237
REMARK   90  A    between atoms: _237  and  _238
REMARK   91  A    between atoms: _237  and  _240
REMARK   92  A    between atoms: _240  and  _241
REMARK   93  A    between atoms: _251  and  _253
REMARK   94  A    between atoms: _253  and  _254
REMARK   95  A    between atoms: _253  and  _256
REMARK   96  A    between atoms: _256  and  _257
REMARK   97  A    between atoms: _260  and  _262
REMARK   98  A    between atoms: _262  and  _263
REMARK   99  A    between atoms: _265  and  _267
REMARK  100  A    between atoms: _267  and  _268
REMARK  101  A    between atoms: _267  and  _270
REMARK  102  A    between atoms: _270  and  _271
REMARK  103  A    between atoms: _276  and  _278
REMARK  104  A    between atoms: _278  and  _279
REMARK  105  A    between atoms: _281  and  _283
REMARK  106  A    between atoms: _283  and  _284
REMARK  107  A    between atoms: _283  and  _286
REMARK  108  A    between atoms: _286  and  _287
REMARK                            x       y       z     vdW  Elec       q    Type
REMARK                         _______ _______ _______ _____ _____    ______ ____
ROOT
ATOM      1  CG  TRP A   1     -14.796 -11.695  34.333  0.00  0.00    -0.002 A 
ATOM      2  CD2 TRP A   1     -13.786 -11.060  35.094  0.00  0.00    +0.013 A 
ATOM      3  CE2 TRP A   1     -14.342  -9.895  35.654  0.00  0.00    +0.056 A 
ATOM      4  CZ2 TRP A   1     -13.624  -9.048  36.478  0.00  0.00    +0.017 A 
ATOM      5  CH2 TRP A   1     -12.322  -9.355  36.720  0.00  0.00    +0.001 A 
ATOM      6  CZ3 TRP A   1     -11.735 -10.478  36.175  0.00  0.00    +0.000 A 
ATOM      7  NE1 TRP A   1     -15.647  -9.841  35.274  0.00  0.00    -0.352 N 
ATOM      8  HE1 TRP A   1     -16.327  -9.103  35.547  0.00  0.00    +0.166 HD
ATOM      9  CE3 TRP A   1     -12.450 -11.353  35.361  0.00  0.00    +0.001 A 
ATOM     10  CD1 TRP A   1     -15.917 -10.911  34.479  0.00  0.00    +0.068 A 
ENDROOT
BRANCH   1  11
ATOM     11  CB  TRP A   1     -14.663 -12.974  33.573  0.00  0.00    +0.053 C 
BRANCH  11  12
ATOM     12  CA  TRP A   1     -14.264 -12.843  32.097  0.00  0.00    +0.137 C 
BRANCH  12  13
ATOM     13  N   TRP A   1     -12.911 -12.305  31.969  0.00  0.00    -0.239 NA
ATOM     14  H   TRP A   1     -12.788 -11.282  31.826  0.00  0.00    +0.142 HD
ENDBRANCH  12  13
BRANCH  12  15
ATOM     15  C   TRP A   1     -15.265 -12.030  31.343  0.00  0.00    +0.224 C 
ATOM     16  O   TRP A   1     -15.076 -10.855  31.057  0.00  0.00    -0.287 OA
ENDBRANCH  12  15
ENDBRANCH  11  12
ENDBRANCH   1  11
TORSDOF 4
REMARK  Name = ../refined-set-2016/4csd/4csd_pocket.pdb
REMARK  108 active torsions:
REMARK  status: ('A' for Active; 'I' for Inactive)
REMARK    1  A    between atoms: _1  and  _3
REMARK    2  A    between atoms: _3  and  _4
REMARK    3  A    between atoms: _3  and  _6
REMARK    4  A    between atoms: _6  and  _7
REMARK    5  A    between atoms: _10  and  _12
REMARK    6  A    between atoms: _12  and  _13
REMARK    7  A    between atoms: _12  and  _15
REMARK    8  A    between atoms: _15  and  _16
REMARK    9  A    between atoms: _26  and  _28
REMARK   10  A    between atoms: _28  and  _29
REMARK   11  A    between atoms: _28  and  _31
REMARK   12  A    between atoms: _31  and  _32
REMARK   13  A    between atoms: _34  and  _36
REMARK   14  A    between atoms: _36  and  _37
REMARK   15  A    between atoms: _36  and  _39
REMARK   16  A    between atoms: _39  and  _40
REMARK   17  A    between atoms: _43  and  _45
REMARK   18  A    between atoms: _45  and  _46
REMARK   19  A    between atoms: _45  and  _48
REMARK   20  A    between atoms: _48  and  _49
REMARK   21  A    between atoms: _49  and  _50
REMARK   22  A    between atoms: _50  and  _51
REMARK   23  A    between atoms: _60  and  _62
REMARK   24  A    between atoms: _62  and  _63
REMARK   25  A    between atoms: _62  and  _65
REMARK   26  A    between atoms: _68  and  _70
REMARK   27  A    between atoms: _70  and  _71
REMARK   28  A    between atoms: _70  and  _73
REMARK   29  A    between atoms: _73  and  _74
REMARK   30  A    between atoms: _79  and  _80
REMARK   31  A    between atoms: _82  and  _84
REMARK   32  A    between atoms: _84  and  _85
REMARK   33  A    between atoms: _84  and  _87
REMARK   34  A    between atoms: _87  and  _88
REMARK   35  A    between atoms: _88  and  _89
REMARK   36  A    between atoms: _92  and  _94
REMARK   37  A    between atoms: _94  and  _95
REMARK   38  A    between atoms: _94  and  _97
REMARK   39  A    between atoms: _97  and  _98
REMARK   40  A    between atoms: _98  and  _99
REMARK   41  A    between atoms: _99  and  _100
REMARK   42  A    between atoms: _109  and  _111
REMARK   43  A    between atoms: _111  and  _112
REMARK   44  A    between atoms: _111  and  _114
REMARK   45  A    between atoms: _116  and  _118
REMARK   46  A    between atoms: _118  and  _119
REMARK   47  A    between atoms: _118  and  _121
REMARK   48  A    between atoms: _121  and  _122
REMARK   49  A    between atoms: _132  and  _134
REMARK   50  A    between atoms: _134  and  _135
REMARK   51  A    between atoms: _134  and  _137
REMARK   52  A    between atoms: _137  and  _138
REMARK   53  A    between atoms: _141  and  _143
REMARK   54  A    between atoms: _143  and  _144
REMARK   55  A    between atoms: _143  and  _146
REMARK   56  A    between atoms: _146  and  _147
REMARK   57  A    between atoms: _152  and  _153
REMARK   58  A    between atoms: _155  and  _157
REMARK   59  A    between atoms: _157  and  _158
REMARK   60  A    between atoms: _157  and  _160
REMARK   61  A    between atoms: _160  and  _161
REMARK   62  A    between atoms: _164  and  _166
REMARK   63  A    between atoms: _166  and  _167
REMARK   64  A    between atoms: _169  and  _171
REMARK   65  A    between atoms: _171  and  _172
REMARK   66  A    between atoms: _175  and  _177
REMARK   67  A    between atoms: _177  and  _178
REMARK   68  A    between atoms: _177  and  _180
REMARK   69  A    between atoms: _180  and  _181
REMARK   70  A    between atoms: _187  and  _189
REMARK   71  A    between atoms: _189  and  _190
REMARK   72  A    between atoms: _189  and  _192
REMARK   73  A    between atoms: _192  and  _193
REMARK   74  A    between atoms: _198  and  _200
REMARK   75  A    between atoms: _200  and  _201
REMARK   76  A    between atoms: _200  and  _203
REMARK   77  A    between atoms: _203  and  _204
REMARK   78  A    between atoms: _207  and  _209
REMARK   79  A    between atoms: _209  and  _210
REMARK   80  A    between atoms: _209  and  _212
REMARK   81  A    between atoms: _212  and  _213
REMARK   82  A    between atoms: _218  and  _220
REMARK   83  A    between atoms: _220  and  _221
REMARK   84  A    between atoms: _220  and  _223
REMARK   85  A    between atoms: _223  and  _224
REMARK   86  A    between atoms: _227  and  _229
REMARK   87  A    between atoms: _229  and  _230
REMARK   88  A    between atoms: _229  and  _232
REMARK   89  A    between atoms: _235  and  _237
REMARK   90  A    between atoms: _237  and  _238
REMARK   91  A    between atoms: _237  and  _240
REMARK   92  A    between atoms: _240  and  _241
REMARK   93  A    between atoms: _251  and  _253
REMARK   94  A    between atoms: _253  and  _254
REMARK   95  A    between atoms: _253  and  _256
REMARK   96  A    between atoms: _256  and  _257
REMARK   97  A    between atoms: _260  and  _262
REMARK   98  A    between atoms: _262  and  _263
REMARK   99  A    between atoms: _265  and  _267
REMARK  100  A    between atoms: _267  and  _268
REMARK  101  A    between atoms: _267  and  _270
REMARK  102  A    between atoms: _270  and  _271
REMARK  103  A    between atoms: _276  and  _278
REMARK  104  A    between atoms: _278  and  _279
REMARK  105  A    between atoms: _281  and  _283
REMARK  106  A    between atoms: _283  and  _284
REMARK  107  A    between atoms: _283  and  _286
REMARK  108  A    between atoms: _286  and  _287
REMARK                            x       y       z     vdW  Elec       q    Type
REMARK                         _______ _______ _______ _____ _____    ______ ____
ROOT
ATOM      1  CA  ARG A   3      -6.937  -8.398  35.163  0.00  0.00    +0.149 C 
ENDROOT
BRANCH   1   3
ATOM      2  C   ILE A   2      -8.590  -7.895  33.439  0.00  0.00    +0.241 C 
ATOM      3  N   ARG A   3      -7.836  -8.788  34.073  0.00  0.00    -0.297 N 
ATOM      4  H   ARG A   3      -7.885  -9.787  33.789  0.00  0.00    +0.150 HD
ATOM      5  O   ILE A   2      -8.692  -6.716  33.799  0.00  0.00    -0.273 OA
BRANCH   2   6
ATOM      6  CA  ILE A   2      -9.250  -8.335  32.165  0.00  0.00    +0.148 C 
BRANCH   6   8
ATOM      7  C   SER A   1     -11.704  -8.389  31.884  0.00  0.00    +0.241 C 
ATOM      8  N   ILE A   2     -10.587  -7.704  32.084  0.00  0.00    -0.297 N 
ATOM      9  H   ILE A   2     -10.653  -6.671  32.189  0.00  0.00    +0.150 HD
ATOM     10  O   SER A   1     -11.732  -9.604  31.686  0.00  0.00    -0.274 OA
BRANCH   7  11
ATOM     11  CA  SER A   1     -12.992  -7.596  31.918  0.00  0.00    +0.174 C 
BRANCH  11  12
ATOM     12  N   SER A   1     -13.852  -8.082  30.890  0.00  0.00    -0.236 NA
ATOM     13  H   SER A   1     -14.449  -8.914  31.074  0.00  0.00    +0.142 HD
ENDBRANCH  11  12
BRANCH  11  14
ATOM     14  CB  SER A   1     -13.617  -7.695  33.298  0.00  0.00    +0.163 C 
BRANCH  14  15
ATOM     15  OG  SER A   1     -14.612  -6.733  33.539  0.00  0.00    -0.380 OA
ATOM     16  H   SER A   1     -15.340  -6.840  32.877  0.00  0.00    +0.211 HD
ENDBRANCH  14  15
ENDBRANCH  11  14
ENDBRANCH   7  11
ENDBRANCH   6   8
BRANCH   6  17
ATOM     17  CB  ILE A   2      -8.348  -8.004  30.935  0.00  0.00    +0.027 C 
ATOM     18  CG2 ILE A   2      -7.008  -8.720  31.013  0.00  0.00    +0.002 C 
BRANCH  17  19
ATOM     19  CG1 ILE A   2      -9.058  -8.328  29.639  0.00  0.00    +0.002 C 
ATOM     20  CD1 ILE A   2      -8.328  -7.824  28.417  0.00  0.00    +0.000 C 
ENDBRANCH  17  19
ENDBRANCH   6  17
ENDBRANCH   2   6
ENDBRANCH   1   3
BRANCH   1  21
ATOM     21  C   ARG A   3      -5.565  -8.930  34.859  0.00  0.00    +0.241 C 
ATOM     22  N   VAL A   4      -4.575  -8.069  34.919  0.00  0.00    -0.297 N 
ATOM     23  H   VAL A   4      -4.789  -7.071  35.120  0.00  0.00    +0.150 HD
ATOM     24  O   ARG A   3      -5.434 -10.115  34.533  0.00  0.00    -0.273 OA
BRANCH  22  25
ATOM     25  CA  VAL A   4      -3.195  -8.460  34.715  0.00  0.00    +0.149 C 
BRANCH  25  26
ATOM     26  C   VAL A   4      -2.398  -8.208  35.981  0.00  0.00    +0.241 C 
ATOM     27  N   TYR A   5      -1.780  -9.224  36.547  0.00  0.00    -0.298 N 
ATOM     28  H   TYR A   5      -1.863 -10.156  36.093  0.00  0.00    +0.150 HD
ATOM     29  O   VAL A   4      -2.372  -7.050  36.458  0.00  0.00    -0.273 OA
BRANCH  27  30
ATOM     30  CA  TYR A   5      -0.981  -9.130  37.778  0.00  0.00    +0.141 C 
BRANCH  30  31
ATOM     31  C   TYR A   5       0.474  -9.130  37.377  0.00  0.00    +0.227 C 
ATOM     32  O   TYR A   5       0.858  -9.932  36.559  0.00  0.00    -0.286 OA
ENDBRANCH  30  31
BRANCH  30  33
ATOM     33  CB  TYR A   5      -1.299 -10.324  38.715  0.00  0.00    +0.054 C 
BRANCH  33  34
ATOM     34  CG  TYR A   5      -2.752 -10.307  39.063  0.00  0.00    -0.020 A 
ATOM     35  CD2 TYR A   5      -3.212  -9.574  40.137  0.00  0.00    -0.001 A 
ATOM     36  CE2 TYR A   5      -4.562  -9.423  40.396  0.00  0.00    +0.036 A 
ATOM     37  CZ  TYR A   5      -5.490 -10.012  39.575  0.00  0.00    +0.134 A 
ATOM     38  CE1 TYR A   5      -5.050 -10.771  38.499  0.00  0.00    +0.036 A 
ATOM     39  CD1 TYR A   5      -3.698 -10.908  38.246  0.00  0.00    -0.001 A 
BRANCH  37  40
ATOM     40  OH  TYR A   5      -6.843  -9.857  39.742  0.00  0.00    -0.506 OA
ATOM     41  HH  TYR A   5      -7.075  -8.897  39.670  0.00  0.00    +0.292 HD
ENDBRANCH  37  40
ENDBRANCH  33  34
ENDBRANCH  30  33
ENDBRANCH  27  30
ENDBRANCH  25  26
BRANCH  25  42
ATOM     42  CB  VAL A   4      -2.565  -7.700  33.509  0.00  0.00    +0.027 C 
ATOM     43  CG2 VAL A   4      -1.129  -8.162  33.307  0.00  0.00    +0.002 C 
ATOM     44  CG1 VAL A   4      -3.390  -7.899  32.256  0.00  0.00    +0.002 C 
ENDBRANCH  25  42
ENDBRANCH  22  25
ENDBRANCH   1  21
BRANCH   1  45
ATOM     45  CB  ARG A   3      -7.445  -8.920  36.519  0.00  0.00    +0.033 C 
BRANCH  45  46
ATOM     46  CG  ARG A   3      -8.828  -8.406  36.941  0.00  0.00    +0.045 C 
BRANCH  46  47
ATOM     47  CD  ARG A   3      -8.788  -6.875  37.220  0.00  0.00    +0.174 C 
BRANCH  47  48
ATOM     48  NE  ARG A   3     -10.072  -6.384  37.677  0.00  0.00    -0.265 N 
ATOM     49  HE  ARG A   3     -10.252  -6.383  38.701  0.00  0.00    +0.259 HD
ATOM     50  CZ  ARG A   3     -11.028  -5.938  36.887  0.00  0.00    +0.342 C 
ATOM     51  NH2 ARG A   3     -12.164  -5.507  37.387  0.00  0.00    -0.292 N 
ATOM     52 HH21 ARG A   3     -12.316  -5.516  38.416  0.00  0.00    +0.255 HD
ATOM     53 HH22 ARG A   3     -12.911  -5.157  36.754  0.00  0.00    +0.255 HD
ATOM     54  NH1 ARG A   3     -10.845  -5.901  35.572  0.00  0.00    -0.292 N 
ATOM     55 HH11 ARG A   3      -9.945  -6.225  35.163  0.00  0.00    +0.255 HD
ATOM     56 HH12 ARG A   3     -11.601  -5.548  34.951  0.00  0.00    +0.255 HD
ENDBRANCH  47  48
ENDBRANCH  46  47
ENDBRANCH  45  46
ENDBRANCH   1  45
TORSDOF 22
REMARK  Name = ../refined-set-2016/4csd/4csd_pocket.pdb
REMARK  108 active torsions:
REMARK  status: ('A' for Active; 'I' for Inactive)
REMARK    1  A    between atoms: _1  and  _3
REMARK    2  A    between atoms: _3  and  _4
REMARK    3  A    between atoms: _3  and  _6
REMARK    4  A    between atoms: _6  and  _7
REMARK    5  A    between atoms: _10  and  _12
REMARK    6  A    between atoms: _12  and  _13
REMARK    7  A    between atoms: _12  and  _15
REMARK    8  A    between atoms: _15  and  _16
REMARK    9  A    between atoms: _26  and  _28
REMARK   10  A    between atoms: _28  and  _29
REMARK   11  A    between atoms: _28  and  _31
REMARK   12  A    between atoms: _31  and  _32
REMARK   13  A    between atoms: _34  and  _36
REMARK   14  A    between atoms: _36  and  _37
REMARK   15  A    between atoms: _36  and  _39
REMARK   16  A    between atoms: _39  and  _40
REMARK   17  A    between atoms: _43  and  _45
REMARK   18  A    between atoms: _45  and  _46
REMARK   19  A    between atoms: _45  and  _48
REMARK   20  A    between atoms: _48  and  _49
REMARK   21  A    between atoms: _49  and  _50
REMARK   22  A    between atoms: _50  and  _51
REMARK   23  A    between atoms: _60  and  _62
REMARK   24  A    between atoms: _62  and  _63
REMARK   25  A    between atoms: _62  and  _65
REMARK   26  A    between atoms: _68  and  _70
REMARK   27  A    between atoms: _70  and  _71
REMARK   28  A    between atoms: _70  and  _73
REMARK   29  A    between atoms: _73  and  _74
REMARK   30  A    between atoms: _79  and  _80
REMARK   31  A    between atoms: _82  and  _84
REMARK   32  A    between atoms: _84  and  _85
REMARK   33  A    between atoms: _84  and  _87
REMARK   34  A    between atoms: _87  and  _88
REMARK   35  A    between atoms: _88  and  _89
REMARK   36  A    between atoms: _92  and  _94
REMARK   37  A    between atoms: _94  and  _95
REMARK   38  A    between atoms: _94  and  _97
REMARK   39  A    between atoms: _97  and  _98
REMARK   40  A    between atoms: _98  and  _99
REMARK   41  A    between atoms: _99  and  _100
REMARK   42  A    between atoms: _109  and  _111
REMARK   43  A    between atoms: _111  and  _112
REMARK   44  A    between atoms: _111  and  _114
REMARK   45  A    between atoms: _116  and  _118
REMARK   46  A    between atoms: _118  and  _119
REMARK   47  A    between atoms: _118  and  _121
REMARK   48  A    between atoms: _121  and  _122
REMARK   49  A    between atoms: _132  and  _134
REMARK   50  A    between atoms: _134  and  _135
REMARK   51  A    between atoms: _134  and  _137
REMARK   52  A    between atoms: _137  and  _138
REMARK   53  A    between atoms: _141  and  _143
REMARK   54  A    between atoms: _143  and  _144
REMARK   55  A    between atoms: _143  and  _146
REMARK   56  A    between atoms: _146  and  _147
REMARK   57  A    between atoms: _152  and  _153
REMARK   58  A    between atoms: _155  and  _157
REMARK   59  A    between atoms: _157  and  _158
REMARK   60  A    between atoms: _157  and  _160
REMARK   61  A    between atoms: _160  and  _161
REMARK   62  A    between atoms: _164  and  _166
REMARK   63  A    between atoms: _166  and  _167
REMARK   64  A    between atoms: _169  and  _171
REMARK   65  A    between atoms: _171  and  _172
REMARK   66  A    between atoms: _175  and  _177
REMARK   67  A    between atoms: _177  and  _178
REMARK   68  A    between atoms: _177  and  _180
REMARK   69  A    between atoms: _180  and  _181
REMARK   70  A    between atoms: _187  and  _189
REMARK   71  A    between atoms: _189  and  _190
REMARK   72  A    between atoms: _189  and  _192
REMARK   73  A    between atoms: _192  and  _193
REMARK   74  A    between atoms: _198  and  _200
REMARK   75  A    between atoms: _200  and  _201
REMARK   76  A    between atoms: _200  and  _203
REMARK   77  A    between atoms: _203  and  _204
REMARK   78  A    between atoms: _207  and  _209
REMARK   79  A    between atoms: _209  and  _210
REMARK   80  A    between atoms: _209  and  _212
REMARK   81  A    between atoms: _212  and  _213
REMARK   82  A    between atoms: _218  and  _220
REMARK   83  A    between atoms: _220  and  _221
REMARK   84  A    between atoms: _220  and  _223
REMARK   85  A    between atoms: _223  and  _224
REMARK   86  A    between atoms: _227  and  _229
REMARK   87  A    between atoms: _229  and  _230
REMARK   88  A    between atoms: _229  and  _232
REMARK   89  A    between atoms: _235  and  _237
REMARK   90  A    between atoms: _237  and  _238
REMARK   91  A    between atoms: _237  and  _240
REMARK   92  A    between atoms: _240  and  _241
REMARK   93  A    between atoms: _251  and  _253
REMARK   94  A    between atoms: _253  and  _254
REMARK   95  A    between atoms: _253  and  _256
REMARK   96  A    between atoms: _256  and  _257
REMARK   97  A    between atoms: _260  and  _262
REMARK   98  A    between atoms: _262  and  _263
REMARK   99  A    between atoms: _265  and  _267
REMARK  100  A    between atoms: _267  and  _268
REMARK  101  A    between atoms: _267  and  _270
REMARK  102  A    between atoms: _270  and  _271
REMARK  103  A    between atoms: _276  and  _278
REMARK  104  A    between atoms: _278  and  _279
REMARK  105  A    between atoms: _281  and  _283
REMARK  106  A    between atoms: _283  and  _284
REMARK  107  A    between atoms: _283  and  _286
REMARK  108  A    between atoms: _286  and  _287
REMARK                            x       y       z     vdW  Elec       q    Type
REMARK                         _______ _______ _______ _____ _____    ______ ____
ROOT
ATOM      1  CA  CYS A   3      -7.612  -3.683  35.178  0.00  0.00    +0.160 C 
ENDROOT
BRANCH   1   4
ATOM      2  C   ARG A   2      -5.274  -4.138  35.675  0.00  0.00    +0.241 C 
ATOM      3  O   ARG A   2      -5.365  -5.351  35.461  0.00  0.00    -0.273 OA
ATOM      4  N   CYS A   3      -6.254  -3.302  35.426  0.00  0.00    -0.296 N 
ATOM      5  H   CYS A   3      -6.028  -2.287  35.407  0.00  0.00    +0.150 HD
BRANCH   2   6
ATOM      6  CA  ARG A   2      -3.983  -3.538  36.195  0.00  0.00    +0.149 C 
BRANCH   6   9
ATOM      7  C   GLU A   1      -3.224  -4.128  38.443  0.00  0.00    +0.238 C 
ATOM      8  O   GLU A   1      -3.421  -2.983  38.870  0.00  0.00    -0.274 OA
ATOM      9  N   ARG A   2      -3.417  -4.441  37.168  0.00  0.00    -0.297 N 
ATOM     10  H   ARG A   2      -3.144  -5.393  36.851  0.00  0.00    +0.150 HD
BRANCH   7  11
ATOM     11  CA  GLU A   1      -2.818  -5.245  39.359  0.00  0.00    +0.145 C 
BRANCH  11  12
ATOM     12  N   GLU A   1      -1.733  -4.831  40.231  0.00  0.00    -0.238 NA
ATOM     13  H   GLU A   1      -1.818  -3.919  40.723  0.00  0.00    +0.142 HD
ENDBRANCH  11  12
BRANCH  11  14
ATOM     14  CB  GLU A   1      -3.986  -5.675  40.241  0.00  0.00    +0.038 C 
BRANCH  14  15
ATOM     15  CG  GLU A   1      -5.261  -6.139  39.546  0.00  0.00    +0.116 C 
BRANCH  15  16
ATOM     16  CD  GLU A   1      -6.418  -6.269  40.514  0.00  0.00    +0.365 C 
ATOM     17  OE2 GLU A   1      -6.664  -5.337  41.293  0.00  0.00    -0.246 OA
ATOM     18  OE1 GLU A   1      -7.148  -7.270  40.459  0.00  0.00    -0.246 OA
ENDBRANCH  15  16
ENDBRANCH  14  15
ENDBRANCH  11  14
ENDBRANCH   7  11
ENDBRANCH   6   9
BRANCH   6  19
ATOM     19  CB  ARG A   2      -2.994  -3.270  35.061  0.00  0.00    +0.033 C 
BRANCH  19  20
ATOM     20  CG  ARG A   2      -1.759  -2.493  35.504  0.00  0.00    +0.045 C 
BRANCH  20  21
ATOM     21  CD  ARG A   2      -2.052  -1.013  35.712  0.00  0.00    +0.174 C 
BRANCH  21  22
ATOM     22  NE  ARG A   2      -2.074  -0.288  34.451  0.00  0.00    -0.265 N 
ATOM     23  CZ  ARG A   2      -2.473   0.953  34.304  0.00  0.00    +0.342 C 
ATOM     24  NH2 ARG A   2      -2.961   1.640  35.329  0.00  0.00    -0.292 N 
ATOM     25 HH21 ARG A   2      -3.032   1.195  36.267  0.00  0.00    +0.255 HD
ATOM     26 HH22 ARG A   2      -3.273   2.623  35.195  0.00  0.00    +0.255 HD
ATOM     27  NH1 ARG A   2      -2.438   1.506  33.109  0.00  0.00    -0.292 N 
ATOM     28 HH11 ARG A   2      -2.752   2.489  32.982  0.00  0.00    +0.255 HD
ATOM     29 HH12 ARG A   2      -2.096   0.959  32.293  0.00  0.00    +0.255 HD
ATOM     30  HE  ARG A   2      -1.749  -0.792  33.601  0.00  0.00    +0.259 HD
ENDBRANCH  21  22
ENDBRANCH  20  21
ENDBRANCH  19  20
ENDBRANCH   6  19
ENDBRANCH   2   6
ENDBRANCH   1   4
BRANCH   1  31
ATOM     31  C   CYS A   3      -8.210  -3.034  33.952  0.00  0.00    +0.242 C 
ATOM     32  O   CYS A   3      -8.059  -1.837  33.725  0.00  0.00    -0.273 OA
ATOM     33  N   TRP A   4      -8.911  -3.827  33.165  0.00  0.00    -0.297 N 
ATOM     34  H   TRP A   4      -8.905  -4.849  33.357  0.00  0.00    +0.150 HD
BRANCH  33  35
ATOM     35  CA  TRP A   4      -9.692  -3.337  32.041  0.00  0.00    +0.153 C 
BRANCH  35  36
ATOM     36  C   TRP A   4     -11.122  -3.791  32.255  0.00  0.00    +0.241 C 
ATOM     37  O   TRP A   4     -11.372  -4.995  32.406  0.00  0.00    -0.273 OA
ATOM     38  N   ASP A   5     -12.070  -2.856  32.223  0.00  0.00    -0.298 N 
ATOM     39  H   ASP A   5     -11.776  -1.861  32.153  0.00  0.00    +0.150 HD
BRANCH  38  40
ATOM     40  CA  ASP A   5     -13.505  -3.151  32.281  0.00  0.00    +0.148 C 
BRANCH  40  41
ATOM     41  C   ASP A   5     -14.239  -2.547  31.084  0.00  0.00    +0.227 C 
ATOM     42  O   ASP A   5     -15.439  -2.279  31.158  0.00  0.00    -0.286 OA
ENDBRANCH  40  41
BRANCH  40  43
ATOM     43  CB  ASP A   5     -14.110  -2.655  33.598  0.00  0.00    +0.142 C 
BRANCH  43  44
ATOM     44  CG  ASP A   5     -13.608  -3.396  34.837  0.00  0.00    +0.367 C 
ATOM     45  OD2 ASP A   5     -13.532  -2.696  35.884  0.00  0.00    -0.246 OA
ATOM     46  OD1 ASP A   5     -13.422  -4.608  34.807  0.00  0.00    -0.246 OA
ENDBRANCH  43  44
ENDBRANCH  40  43
ENDBRANCH  38  40
ENDBRANCH  35  36
BRANCH  35  47
ATOM     47  CB  TRP A   4      -9.166  -3.922  30.730  0.00  0.00    +0.057 C 
BRANCH  47  48
ATOM     48  CG  TRP A   4      -9.958  -3.595  29.510  0.00  0.00    -0.002 A 
ATOM     49  CD1 TRP A   4     -11.019  -4.286  28.968  0.00  0.00    +0.068 A 
ATOM     50  NE1 TRP A   4     -11.473  -3.635  27.866  0.00  0.00    -0.352 N 
ATOM     51  CE2 TRP A   4     -10.702  -2.528  27.645  0.00  0.00    +0.056 A 
ATOM     52  CZ2 TRP A   4     -10.749  -1.596  26.600  0.00  0.00    +0.017 A 
ATOM     53  CH2 TRP A   4      -9.809  -0.604  26.596  0.00  0.00    +0.001 A 
ATOM     54  CZ3 TRP A   4      -8.828  -0.524  27.584  0.00  0.00    +0.000 A 
ATOM     55  CE3 TRP A   4      -8.775  -1.446  28.629  0.00  0.00    +0.001 A 
ATOM     56  HE1 TRP A   4     -12.281  -3.932  27.282  0.00  0.00    +0.166 HD
ATOM     57  CD2 TRP A   4      -9.727  -2.480  28.650  0.00  0.00    +0.013 A 
ENDBRANCH  47  48
ENDBRANCH  35  47
ENDBRANCH  33  35
ENDBRANCH   1  31
BRANCH   1  58
ATOM     58  CB  CYS A   3      -8.488  -3.243  36.352  0.00  0.00    +0.098 C 
ATOM     59  SG  CYS A   3      -7.916  -3.708  37.982  0.00  0.00    -0.080 S 
ENDBRANCH   1  58
TORSDOF 22
REMARK  Name = ../refined-set-2016/4csd/4csd_pocket.pdb
REMARK  108 active torsions:
REMARK  status: ('A' for Active; 'I' for Inactive)
REMARK    1  A    between atoms: _1  and  _3
REMARK    2  A    between atoms: _3  and  _4
REMARK    3  A    between atoms: _3  and  _6
REMARK    4  A    between atoms: _6  and  _7
REMARK    5  A    between atoms: _10  and  _12
REMARK    6  A    between atoms: _12  and  _13
REMARK    7  A    between atoms: _12  and  _15
REMARK    8  A    between atoms: _15  and  _16
REMARK    9  A    between atoms: _26  and  _28
REMARK   10  A    between atoms: _28  and  _29
REMARK   11  A    between atoms: _28  and  _31
REMARK   12  A    between atoms: _31  and  _32
REMARK   13  A    between atoms: _34  and  _36
REMARK   14  A    between atoms: _36  and  _37
REMARK   15  A    between atoms: _36  and  _39
REMARK   16  A    between atoms: _39  and  _40
REMARK   17  A    between atoms: _43  and  _45
REMARK   18  A    between atoms: _45  and  _46
REMARK   19  A    between atoms: _45  and  _48
REMARK   20  A    between atoms: _48  and  _49
REMARK   21  A    between atoms: _49  and  _50
REMARK   22  A    between atoms: _50  and  _51
REMARK   23  A    between atoms: _60  and  _62
REMARK   24  A    between atoms: _62  and  _63
REMARK   25  A    between atoms: _62  and  _65
REMARK   26  A    between atoms: _68  and  _70
REMARK   27  A    between atoms: _70  and  _71
REMARK   28  A    between atoms: _70  and  _73
REMARK   29  A    between atoms: _73  and  _74
REMARK   30  A    between atoms: _79  and  _80
REMARK   31  A    between atoms: _82  and  _84
REMARK   32  A    between atoms: _84  and  _85
REMARK   33  A    between atoms: _84  and  _87
REMARK   34  A    between atoms: _87  and  _88
REMARK   35  A    between atoms: _88  and  _89
REMARK   36  A    between atoms: _92  and  _94
REMARK   37  A    between atoms: _94  and  _95
REMARK   38  A    between atoms: _94  and  _97
REMARK   39  A    between atoms: _97  and  _98
REMARK   40  A    between atoms: _98  and  _99
REMARK   41  A    between atoms: _99  and  _100
REMARK   42  A    between atoms: _109  and  _111
REMARK   43  A    between atoms: _111  and  _112
REMARK   44  A    between atoms: _111  and  _114
REMARK   45  A    between atoms: _116  and  _118
REMARK   46  A    between atoms: _118  and  _119
REMARK   47  A    between atoms: _118  and  _121
REMARK   48  A    between atoms: _121  and  _122
REMARK   49  A    between atoms: _132  and  _134
REMARK   50  A    between atoms: _134  and  _135
REMARK   51  A    between atoms: _134  and  _137
REMARK   52  A    between atoms: _137  and  _138
REMARK   53  A    between atoms: _141  and  _143
REMARK   54  A    between atoms: _143  and  _144
REMARK   55  A    between atoms: _143  and  _146
REMARK   56  A    between atoms: _146  and  _147
REMARK   57  A    between atoms: _152  and  _153
REMARK   58  A    between atoms: _155  and  _157
REMARK   59  A    between atoms: _157  and  _158
REMARK   60  A    between atoms: _157  and  _160
REMARK   61  A    between atoms: _160  and  _161
REMARK   62  A    between atoms: _164  and  _166
REMARK   63  A    between atoms: _166  and  _167
REMARK   64  A    between atoms: _169  and  _171
REMARK   65  A    between atoms: _171  and  _172
REMARK   66  A    between atoms: _175  and  _177
REMARK   67  A    between atoms: _177  and  _178
REMARK   68  A    between atoms: _177  and  _180
REMARK   69  A    between atoms: _180  and  _181
REMARK   70  A    between atoms: _187  and  _189
REMARK   71  A    between atoms: _189  and  _190
REMARK   72  A    between atoms: _189  and  _192
REMARK   73  A    between atoms: _192  and  _193
REMARK   74  A    between atoms: _198  and  _200
REMARK   75  A    between atoms: _200  and  _201
REMARK   76  A    between atoms: _200  and  _203
REMARK   77  A    between atoms: _203  and  _204
REMARK   78  A    between atoms: _207  and  _209
REMARK   79  A    between atoms: _209  and  _210
REMARK   80  A    between atoms: _209  and  _212
REMARK   81  A    between atoms: _212  and  _213
REMARK   82  A    between atoms: _218  and  _220
REMARK   83  A    between atoms: _220  and  _221
REMARK   84  A    between atoms: _220  and  _223
REMARK   85  A    between atoms: _223  and  _224
REMARK   86  A    between atoms: _227  and  _229
REMARK   87  A    between atoms: _229  and  _230
REMARK   88  A    between atoms: _229  and  _232
REMARK   89  A    between atoms: _235  and  _237
REMARK   90  A    between atoms: _237  and  _238
REMARK   91  A    between atoms: _237  and  _240
REMARK   92  A    between atoms: _240  and  _241
REMARK   93  A    between atoms: _251  and  _253
REMARK   94  A    between atoms: _253  and  _254
REMARK   95  A    between atoms: _253  and  _256
REMARK   96  A    between atoms: _256  and  _257
REMARK   97  A    between atoms: _260  and  _262
REMARK   98  A    between atoms: _262  and  _263
REMARK   99  A    between atoms: _265  and  _267
REMARK  100  A    between atoms: _267  and  _268
REMARK  101  A    between atoms: _267  and  _270
REMARK  102  A    between atoms: _270  and  _271
REMARK  103  A    between atoms: _276  and  _278
REMARK  104  A    between atoms: _278  and  _279
REMARK  105  A    between atoms: _281  and  _283
REMARK  106  A    between atoms: _283  and  _284
REMARK  107  A    between atoms: _283  and  _286
REMARK  108  A    between atoms: _286  and  _287
REMARK                            x       y       z     vdW  Elec       q    Type
REMARK                         _______ _______ _______ _____ _____    ______ ____
ROOT
ATOM      1  C   GLY A   3      -6.205  -2.089  42.292  0.00  0.00    +0.243 C 
ATOM      2  N   ALA A   4      -7.102  -2.558  43.147  0.00  0.00    -0.297 N 
ATOM      3  H   ALA A   4      -7.996  -2.938  42.777  0.00  0.00    +0.150 HD
ATOM      4  O   GLY A   3      -5.093  -1.690  42.639  0.00  0.00    -0.273 OA
ENDROOT
BRANCH   2   5
ATOM      5  CA  ALA A   4      -6.882  -2.560  44.577  0.00  0.00    +0.149 C 
ATOM      6  CB  ALA A   4      -8.210  -2.827  45.282  0.00  0.00    +0.031 C 
BRANCH   5   7
ATOM      7  C   ALA A   4      -5.876  -3.580  45.041  0.00  0.00    +0.241 C 
ATOM      8  O   ALA A   4      -5.354  -3.466  46.140  0.00  0.00    -0.273 OA
ATOM      9  N   PHE A   5      -5.575  -4.627  44.243  0.00  0.00    -0.297 N 
ATOM     10  H   PHE A   5      -5.981  -4.686  43.287  0.00  0.00    +0.150 HD
BRANCH   9  11
ATOM     11  CA  PHE A   5      -4.687  -5.668  44.717  0.00  0.00    +0.153 C 
BRANCH  11  12
ATOM     12  C   PHE A   5      -3.237  -5.214  44.882  0.00  0.00    +0.241 C 
ATOM     13  N   ASN A   6      -2.675  -5.426  46.063  0.00  0.00    -0.298 N 
ATOM     14  H   ASN A   6      -3.258  -5.802  46.838  0.00  0.00    +0.150 HD
ATOM     15  O   PHE A   5      -2.617  -4.769  43.926  0.00  0.00    -0.273 OA
BRANCH  13  16
ATOM     16  CA  ASN A   6      -1.269  -5.150  46.311  0.00  0.00    +0.146 C 
BRANCH  16  17
ATOM     17  C   ASN A   6      -0.822  -6.141  47.356  0.00  0.00    +0.227 C 
ATOM     18  O   ASN A   6      -1.279  -6.062  48.503  0.00  0.00    -0.286 OA
ENDBRANCH  16  17
BRANCH  16  19
ATOM     19  CB  ASN A   6      -1.093  -3.760  46.938  0.00  0.00    +0.112 C 
BRANCH  19  20
ATOM     20  CG  ASN A   6      -1.263  -2.612  45.996  0.00  0.00    +0.222 C 
ATOM     21  ND2 ASN A   6      -2.505  -2.153  45.891  0.00  0.00    -0.329 N 
ATOM     22 HD21 ASN A   6      -3.279  -2.628  46.397  0.00  0.00    +0.145 HD
ATOM     23 HD22 ASN A   6      -2.703  -1.319  45.303  0.00  0.00    +0.145 HD
ATOM     24  OD1 ASN A   6      -0.285  -2.084  45.411  0.00  0.00    -0.275 OA
ENDBRANCH  19  20
ENDBRANCH  16  19
ENDBRANCH  13  16
ENDBRANCH  11  12
BRANCH  11  25
ATOM     25  CB  PHE A   5      -4.732  -6.844  43.734  0.00  0.00    +0.055 C 
BRANCH  25  26
ATOM     26  CG  PHE A   5      -3.938  -8.034  44.170  0.00  0.00    -0.020 A 
ATOM     27  CD2 PHE A   5      -4.509  -9.029  44.887  0.00  0.00    -0.004 A 
ATOM     28  CE2 PHE A   5      -3.773 -10.117  45.292  0.00  0.00    -0.000 A 
ATOM     29  CZ  PHE A   5      -2.474 -10.249  44.993  0.00  0.00    -0.000 A 
ATOM     30  CE1 PHE A   5      -1.872  -9.281  44.275  0.00  0.00    -0.000 A 
ATOM     31  CD1 PHE A   5      -2.607  -8.173  43.854  0.00  0.00    -0.004 A 
ENDBRANCH  25  26
ENDBRANCH  11  25
ENDBRANCH   9  11
ENDBRANCH   5   7
ENDBRANCH   2   5
BRANCH   1  32
ATOM     32  CA  GLY A   3      -6.645  -2.164  40.844  0.00  0.00    +0.176 C 
BRANCH  32  35
ATOM     33  C   THR A   2      -5.693  -0.211  39.747  0.00  0.00    +0.243 C 
ATOM     34  O   THR A   2      -6.449   0.555  40.337  0.00  0.00    -0.273 OA
ATOM     35  N   GLY A   3      -5.705  -1.524  39.956  0.00  0.00    -0.295 N 
ATOM     36  H   GLY A   3      -5.008  -2.114  39.459  0.00  0.00    +0.150 HD
BRANCH  33  37
ATOM     37  CA  THR A   2      -4.705   0.268  38.705  0.00  0.00    +0.176 C 
BRANCH  37  39
ATOM     38  C   TYR A   1      -5.917   0.483  36.617  0.00  0.00    +0.239 C 
ATOM     39  N   THR A   2      -5.384   1.030  37.683  0.00  0.00    -0.295 N 
ATOM     40  H   THR A   2      -5.453   2.061  37.798  0.00  0.00    +0.150 HD
ATOM     41  O   TYR A   1      -5.830  -0.729  36.409  0.00  0.00    -0.274 OA
BRANCH  38  42
ATOM     42  CA  TYR A   1      -6.627   1.414  35.651  0.00  0.00    +0.149 C 
BRANCH  42  43
ATOM     43  N   TYR A   1      -6.824   0.756  34.376  0.00  0.00    -0.238 NA
ATOM     44  H   TYR A   1      -7.162  -0.227  34.369  0.00  0.00    +0.142 HD
ENDBRANCH  42  43
BRANCH  42  45
ATOM     45  CB  TYR A   1      -7.972   1.945  36.221  0.00  0.00    +0.053 C 
BRANCH  45  46
ATOM     46  CG  TYR A   1      -8.970   0.888  36.617  0.00  0.00    -0.020 A 
ATOM     47  CD2 TYR A   1      -9.000   0.423  37.906  0.00  0.00    -0.001 A 
ATOM     48  CE2 TYR A   1      -9.904  -0.533  38.279  0.00  0.00    +0.036 A 
ATOM     49  CZ  TYR A   1     -10.833  -1.022  37.363  0.00  0.00    +0.134 A 
ATOM     50  CE1 TYR A   1     -10.813  -0.574  36.067  0.00  0.00    +0.036 A 
ATOM     51  CD1 TYR A   1      -9.886   0.396  35.718  0.00  0.00    -0.001 A 
BRANCH  49  52
ATOM     52  OH  TYR A   1     -11.730  -1.982  37.773  0.00  0.00    -0.506 OA
ATOM     53  HH  TYR A   1     -12.319  -2.226  37.016  0.00  0.00    +0.292 HD
ENDBRANCH  49  52
ENDBRANCH  45  46
ENDBRANCH  42  45
ENDBRANCH  38  42
ENDBRANCH  37  39
BRANCH  37  54
ATOM     54  CB  THR A   2      -3.581   1.102  39.312  0.00  0.00    +0.137 C 
ATOM     55  CG2 THR A   2      -2.837   0.376  40.426  0.00  0.00    +0.034 C 
BRANCH  54  56
ATOM     56  OG1 THR A   2      -2.683   1.426  38.278  0.00  0.00    -0.382 OA
ATOM     57  HG1 THR A   2      -3.158   1.943  37.580  0.00  0.00    +0.210 HD
ENDBRANCH  54  56
ENDBRANCH  37  54
ENDBRANCH  33  37
ENDBRANCH  32  35
ENDBRANCH   1  32
TORSDOF 21
REMARK  Name = ../refined-set-2016/4csd/4csd_pocket.pdb
REMARK  108 active torsions:
REMARK  status: ('A' for Active; 'I' for Inactive)
REMARK    1  A    between atoms: _1  and  _3
REMARK    2  A    between atoms: _3  and  _4
REMARK    3  A    between atoms: _3  and  _6
REMARK    4  A    between atoms: _6  and  _7
REMARK    5  A    between atoms: _10  and  _12
REMARK    6  A    between atoms: _12  and  _13
REMARK    7  A    between atoms: _12  and  _15
REMARK    8  A    between atoms: _15  and  _16
REMARK    9  A    between atoms: _26  and  _28
REMARK   10  A    between atoms: _28  and  _29
REMARK   11  A    between atoms: _28  and  _31
REMARK   12  A    between atoms: _31  and  _32
REMARK   13  A    between atoms: _34  and  _36
REMARK   14  A    between atoms: _36  and  _37
REMARK   15  A    between atoms: _36  and  _39
REMARK   16  A    between atoms: _39  and  _40
REMARK   17  A    between atoms: _43  and  _45
REMARK   18  A    between atoms: _45  and  _46
REMARK   19  A    between atoms: _45  and  _48
REMARK   20  A    between atoms: _48  and  _49
REMARK   21  A    between atoms: _49  and  _50
REMARK   22  A    between atoms: _50  and  _51
REMARK   23  A    between atoms: _60  and  _62
REMARK   24  A    between atoms: _62  and  _63
REMARK   25  A    between atoms: _62  and  _65
REMARK   26  A    between atoms: _68  and  _70
REMARK   27  A    between atoms: _70  and  _71
REMARK   28  A    between atoms: _70  and  _73
REMARK   29  A    between atoms: _73  and  _74
REMARK   30  A    between atoms: _79  and  _80
REMARK   31  A    between atoms: _82  and  _84
REMARK   32  A    between atoms: _84  and  _85
REMARK   33  A    between atoms: _84  and  _87
REMARK   34  A    between atoms: _87  and  _88
REMARK   35  A    between atoms: _88  and  _89
REMARK   36  A    between atoms: _92  and  _94
REMARK   37  A    between atoms: _94  and  _95
REMARK   38  A    between atoms: _94  and  _97
REMARK   39  A    between atoms: _97  and  _98
REMARK   40  A    between atoms: _98  and  _99
REMARK   41  A    between atoms: _99  and  _100
REMARK   42  A    between atoms: _109  and  _111
REMARK   43  A    between atoms: _111  and  _112
REMARK   44  A    between atoms: _111  and  _114
REMARK   45  A    between atoms: _116  and  _118
REMARK   46  A    between atoms: _118  and  _119
REMARK   47  A    between atoms: _118  and  _121
REMARK   48  A    between atoms: _121  and  _122
REMARK   49  A    between atoms: _132  and  _134
REMARK   50  A    between atoms: _134  and  _135
REMARK   51  A    between atoms: _134  and  _137
REMARK   52  A    between atoms: _137  and  _138
REMARK   53  A    between atoms: _141  and  _143
REMARK   54  A    between atoms: _143  and  _144
REMARK   55  A    between atoms: _143  and  _146
REMARK   56  A    between atoms: _146  and  _147
REMARK   57  A    between atoms: _152  and  _153
REMARK   58  A    between atoms: _155  and  _157
REMARK   59  A    between atoms: _157  and  _158
REMARK   60  A    between atoms: _157  and  _160
REMARK   61  A    between atoms: _160  and  _161
REMARK   62  A    between atoms: _164  and  _166
REMARK   63  A    between atoms: _166  and  _167
REMARK   64  A    between atoms: _169  and  _171
REMARK   65  A    between atoms: _171  and  _172
REMARK   66  A    between atoms: _175  and  _177
REMARK   67  A    between atoms: _177  and  _178
REMARK   68  A    between atoms: _177  and  _180
REMARK   69  A    between atoms: _180  and  _181
REMARK   70  A    between atoms: _187  and  _189
REMARK   71  A    between atoms: _189  and  _190
REMARK   72  A    between atoms: _189  and  _192
REMARK   73  A    between atoms: _192  and  _193
REMARK   74  A    between atoms: _198  and  _200
REMARK   75  A    between atoms: _200  and  _201
REMARK   76  A    between atoms: _200  and  _203
REMARK   77  A    between atoms: _203  and  _204
REMARK   78  A    between atoms: _207  and  _209
REMARK   79  A    between atoms: _209  and  _210
REMARK   80  A    between atoms: _209  and  _212
REMARK   81  A    between atoms: _212  and  _213
REMARK   82  A    between atoms: _218  and  _220
REMARK   83  A    between atoms: _220  and  _221
REMARK   84  A    between atoms: _220  and  _223
REMARK   85  A    between atoms: _223  and  _224
REMARK   86  A    between atoms: _227  and  _229
REMARK   87  A    between atoms: _229  and  _230
REMARK   88  A    between atoms: _229  and  _232
REMARK   89  A    between atoms: _235  and  _237
REMARK   90  A    between atoms: _237  and  _238
REMARK   91  A    between atoms: _237  and  _240
REMARK   92  A    between atoms: _240  and  _241
REMARK   93  A    between atoms: _251  and  _253
REMARK   94  A    between atoms: _253  and  _254
REMARK   95  A    between atoms: _253  and  _256
REMARK   96  A    between atoms: _256  and  _257
REMARK   97  A    between atoms: _260  and  _262
REMARK   98  A    between atoms: _262  and  _263
REMARK   99  A    between atoms: _265  and  _267
REMARK  100  A    between atoms: _267  and  _268
REMARK  101  A    between atoms: _267  and  _270
REMARK  102  A    between atoms: _270  and  _271
REMARK  103  A    between atoms: _276  and  _278
REMARK  104  A    between atoms: _278  and  _279
REMARK  105  A    between atoms: _281  and  _283
REMARK  106  A    between atoms: _283  and  _284
REMARK  107  A    between atoms: _283  and  _286
REMARK  108  A    between atoms: _286  and  _287
REMARK                            x       y       z     vdW  Elec       q    Type
REMARK                         _______ _______ _______ _____ _____    ______ ____
ROOT
ATOM      1  CA  HIS A   2     -14.350 -14.892  41.672  0.00  0.00    +0.155 C 
ENDROOT
BRANCH   1   4
ATOM      2  C   ILE A   1     -15.970 -13.316  40.762  0.00  0.00    +0.238 C 
ATOM      3  O   ILE A   1     -16.074 -12.697  41.805  0.00  0.00    -0.274 OA
ATOM      4  N   HIS A   2     -15.218 -14.382  40.638  0.00  0.00    -0.297 N 
ATOM      5  H   HIS A   2     -15.249 -14.895  39.734  0.00  0.00    +0.150 HD
BRANCH   2   6
ATOM      6  CA  ILE A   1     -16.635 -12.891  39.467  0.00  0.00    +0.145 C 
BRANCH   6   7
ATOM      7  N   ILE A   1     -17.992 -12.413  39.738  0.00  0.00    -0.238 NA
ATOM      8  H   ILE A   1     -18.145 -11.393  39.874  0.00  0.00    +0.142 HD
ENDBRANCH   6   7
BRANCH   6   9
ATOM      9  CB  ILE A   1     -15.729 -11.871  38.673  0.00  0.00    +0.025 C 
ATOM     10  CG2 ILE A   1     -15.354 -10.661  39.479  0.00  0.00    +0.002 C 
BRANCH   9  11
ATOM     11  CG1 ILE A   1     -14.386 -12.451  38.174  0.00  0.00    +0.002 C 
ATOM     12  CD1 ILE A   1     -14.558 -13.606  37.221  0.00  0.00    +0.000 C 
ENDBRANCH   9  11
ENDBRANCH   6   9
ENDBRANCH   2   6
ENDBRANCH   1   4
BRANCH   1  13
ATOM     13  C   HIS A   2     -12.949 -15.026  41.130  0.00  0.00    +0.241 C 
ATOM     14  N   ILE A   3     -11.963 -14.472  41.830  0.00  0.00    -0.298 N 
ATOM     15  H   ILE A   3     -12.190 -14.025  42.741  0.00  0.00    +0.150 HD
ATOM     16  O   HIS A   2     -12.779 -15.602  40.065  0.00  0.00    -0.273 OA
BRANCH  14  17
ATOM     17  CA  ILE A   3     -10.559 -14.464  41.368  0.00  0.00    +0.137 C 
BRANCH  17  18
ATOM     18  C   ILE A   3      -9.720 -15.113  42.429  0.00  0.00    +0.227 C 
ATOM     19  O   ILE A   3      -9.934 -14.865  43.620  0.00  0.00    -0.286 OA
ENDBRANCH  17  18
BRANCH  17  20
ATOM     20  CB  ILE A   3     -10.037 -13.047  41.037  0.00  0.00    +0.026 C 
ATOM     21  CG2 ILE A   3      -8.669 -13.138  40.396  0.00  0.00    +0.002 C 
BRANCH  20  22
ATOM     22  CG1 ILE A   3     -10.994 -12.277  40.132  0.00  0.00    +0.002 C 
ATOM     23  CD1 ILE A   3     -10.656 -10.797  40.015  0.00  0.00    +0.000 C 
ENDBRANCH  20  22
ENDBRANCH  17  20
ENDBRANCH  14  17
ENDBRANCH   1  13
BRANCH   1  24
ATOM     24  CB  HIS A   2     -14.872 -16.250  42.126  0.00  0.00    +0.076 C 
BRANCH  24  25
ATOM     25  CG  HIS A   2     -16.259 -16.185  42.660  0.00  0.00    +0.082 A 
ATOM     26  ND1 HIS A   2     -16.515 -15.923  43.988  0.00  0.00    -0.227 NA
ATOM     27  CE1 HIS A   2     -17.828 -15.874  44.168  0.00  0.00    +0.199 A 
ATOM     28  NE2 HIS A   2     -18.421 -16.068  43.004  0.00  0.00    -0.221 NA
ATOM     29  CD2 HIS A   2     -17.456 -16.254  42.041  0.00  0.00    +0.115 A 
ENDBRANCH  24  25
ENDBRANCH   1  24
TORSDOF 12
REMARK  Name = ../refined-set-2016/4csd/4csd_pocket.pdb
REMARK  108 active torsions:
REMARK  status: ('A' for Active; 'I' for Inactive)
REMARK    1  A    between atoms: _1  and  _3
REMARK    2  A    between atoms: _3  and  _4
REMARK    3  A    between atoms: _3  and  _6
REMARK    4  A    between atoms: _6  and  _7
REMARK    5  A    between atoms: _10  and  _12
REMARK    6  A    between atoms: _12  and  _13
REMARK    7  A    between atoms: _12  and  _15
REMARK    8  A    between atoms: _15  and  _16
REMARK    9  A    between atoms: _26  and  _28
REMARK   10  A    between atoms: _28  and  _29
REMARK   11  A    between atoms: _28  and  _31
REMARK   12  A    between atoms: _31  and  _32
REMARK   13  A    between atoms: _34  and  _36
REMARK   14  A    between atoms: _36  and  _37
REMARK   15  A    between atoms: _36  and  _39
REMARK   16  A    between atoms: _39  and  _40
REMARK   17  A    between atoms: _43  and  _45
REMARK   18  A    between atoms: _45  and  _46
REMARK   19  A    between atoms: _45  and  _48
REMARK   20  A    between atoms: _48  and  _49
REMARK   21  A    between atoms: _49  and  _50
REMARK   22  A    between atoms: _50  and  _51
REMARK   23  A    between atoms: _60  and  _62
REMARK   24  A    between atoms: _62  and  _63
REMARK   25  A    between atoms: _62  and  _65
REMARK   26  A    between atoms: _68  and  _70
REMARK   27  A    between atoms: _70  and  _71
REMARK   28  A    between atoms: _70  and  _73
REMARK   29  A    between atoms: _73  and  _74
REMARK   30  A    between atoms: _79  and  _80
REMARK   31  A    between atoms: _82  and  _84
REMARK   32  A    between atoms: _84  and  _85
REMARK   33  A    between atoms: _84  and  _87
REMARK   34  A    between atoms: _87  and  _88
REMARK   35  A    between atoms: _88  and  _89
REMARK   36  A    between atoms: _92  and  _94
REMARK   37  A    between atoms: _94  and  _95
REMARK   38  A    between atoms: _94  and  _97
REMARK   39  A    between atoms: _97  and  _98
REMARK   40  A    between atoms: _98  and  _99
REMARK   41  A    between atoms: _99  and  _100
REMARK   42  A    between atoms: _109  and  _111
REMARK   43  A    between atoms: _111  and  _112
REMARK   44  A    between atoms: _111  and  _114
REMARK   45  A    between atoms: _116  and  _118
REMARK   46  A    between atoms: _118  and  _119
REMARK   47  A    between atoms: _118  and  _121
REMARK   48  A    between atoms: _121  and  _122
REMARK   49  A    between atoms: _132  and  _134
REMARK   50  A    between atoms: _134  and  _135
REMARK   51  A    between atoms: _134  and  _137
REMARK   52  A    between atoms: _137  and  _138
REMARK   53  A    between atoms: _141  and  _143
REMARK   54  A    between atoms: _143  and  _144
REMARK   55  A    between atoms: _143  and  _146
REMARK   56  A    between atoms: _146  and  _147
REMARK   57  A    between atoms: _152  and  _153
REMARK   58  A    between atoms: _155  and  _157
REMARK   59  A    between atoms: _157  and  _158
REMARK   60  A    between atoms: _157  and  _160
REMARK   61  A    between atoms: _160  and  _161
REMARK   62  A    between atoms: _164  and  _166
REMARK   63  A    between atoms: _166  and  _167
REMARK   64  A    between atoms: _169  and  _171
REMARK   65  A    between atoms: _171  and  _172
REMARK   66  A    between atoms: _175  and  _177
REMARK   67  A    between atoms: _177  and  _178
REMARK   68  A    between atoms: _177  and  _180
REMARK   69  A    between atoms: _180  and  _181
REMARK   70  A    between atoms: _187  and  _189
REMARK   71  A    between atoms: _189  and  _190
REMARK   72  A    between atoms: _189  and  _192
REMARK   73  A    between atoms: _192  and  _193
REMARK   74  A    between atoms: _198  and  _200
REMARK   75  A    between atoms: _200  and  _201
REMARK   76  A    between atoms: _200  and  _203
REMARK   77  A    between atoms: _203  and  _204
REMARK   78  A    between atoms: _207  and  _209
REMARK   79  A    between atoms: _209  and  _210
REMARK   80  A    between atoms: _209  and  _212
REMARK   81  A    between atoms: _212  and  _213
REMARK   82  A    between atoms: _218  and  _220
REMARK   83  A    between atoms: _220  and  _221
REMARK   84  A    between atoms: _220  and  _223
REMARK   85  A    between atoms: _223  and  _224
REMARK   86  A    between atoms: _227  and  _229
REMARK   87  A    between atoms: _229  and  _230
REMARK   88  A    between atoms: _229  and  _232
REMARK   89  A    between atoms: _235  and  _237
REMARK   90  A    between atoms: _237  and  _238
REMARK   91  A    between atoms: _237  and  _240
REMARK   92  A    between atoms: _240  and  _241
REMARK   93  A    between atoms: _251  and  _253
REMARK   94  A    between atoms: _253  and  _254
REMARK   95  A    between atoms: _253  and  _256
REMARK   96  A    between atoms: _256  and  _257
REMARK   97  A    between atoms: _260  and  _262
REMARK   98  A    between atoms: _262  and  _263
REMARK   99  A    between atoms: _265  and  _267
REMARK  100  A    between atoms: _267  and  _268
REMARK  101  A    between atoms: _267  and  _270
REMARK  102  A    between atoms: _270  and  _271
REMARK  103  A    between atoms: _276  and  _278
REMARK  104  A    between atoms: _278  and  _279
REMARK  105  A    between atoms: _281  and  _283
REMARK  106  A    between atoms: _283  and  _284
REMARK  107  A    between atoms: _283  and  _286
REMARK  108  A    between atoms: _286  and  _287
REMARK                            x       y       z     vdW  Elec       q    Type
REMARK                         _______ _______ _______ _____ _____    ______ ____
ROOT
ATOM      1  CA  VAL A   1      -4.250 -15.106  42.835  0.00  0.00    +0.133 C 
ENDROOT
BRANCH   1   2
ATOM      2  CB  VAL A   1      -4.020 -13.577  42.983  0.00  0.00    +0.023 C 
ATOM      3  CG2 VAL A   1      -2.555 -13.238  42.764  0.00  0.00    +0.002 C 
ATOM      4  CG1 VAL A   1      -4.887 -12.785  42.012  0.00  0.00    +0.002 C 
ENDBRANCH   1   2
BRANCH   1   5
ATOM      5  N   VAL A   1      -5.612 -15.455  43.153  0.00  0.00    -0.239 NA
ATOM      6  H   VAL A   1      -6.001 -15.113  44.055  0.00  0.00    +0.142 HD
ENDBRANCH   1   5
BRANCH   1   7
ATOM      7  C   VAL A   1      -3.315 -15.880  43.721  0.00  0.00    +0.224 C 
ATOM      8  O   VAL A   1      -3.435 -15.855  44.943  0.00  0.00    -0.287 OA
ENDBRANCH   1   7
TORSDOF 3
REMARK  Name = ../refined-set-2016/4csd/4csd_pocket.pdb
REMARK  108 active torsions:
REMARK  status: ('A' for Active; 'I' for Inactive)
REMARK    1  A    between atoms: _1  and  _3
REMARK    2  A    between atoms: _3  and  _4
REMARK    3  A    between atoms: _3  and  _6
REMARK    4  A    between atoms: _6  and  _7
REMARK    5  A    between atoms: _10  and  _12
REMARK    6  A    between atoms: _12  and  _13
REMARK    7  A    between atoms: _12  and  _15
REMARK    8  A    between atoms: _15  and  _16
REMARK    9  A    between atoms: _26  and  _28
REMARK   10  A    between atoms: _28  and  _29
REMARK   11  A    between atoms: _28  and  _31
REMARK   12  A    between atoms: _31  and  _32
REMARK   13  A    between atoms: _34  and  _36
REMARK   14  A    between atoms: _36  and  _37
REMARK   15  A    between atoms: _36  and  _39
REMARK   16  A    between atoms: _39  and  _40
REMARK   17  A    between atoms: _43  and  _45
REMARK   18  A    between atoms: _45  and  _46
REMARK   19  A    between atoms: _45  and  _48
REMARK   20  A    between atoms: _48  and  _49
REMARK   21  A    between atoms: _49  and  _50
REMARK   22  A    between atoms: _50  and  _51
REMARK   23  A    between atoms: _60  and  _62
REMARK   24  A    between atoms: _62  and  _63
REMARK   25  A    between atoms: _62  and  _65
REMARK   26  A    between atoms: _68  and  _70
REMARK   27  A    between atoms: _70  and  _71
REMARK   28  A    between atoms: _70  and  _73
REMARK   29  A    between atoms: _73  and  _74
REMARK   30  A    between atoms: _79  and  _80
REMARK   31  A    between atoms: _82  and  _84
REMARK   32  A    between atoms: _84  and  _85
REMARK   33  A    between atoms: _84  and  _87
REMARK   34  A    between atoms: _87  and  _88
REMARK   35  A    between atoms: _88  and  _89
REMARK   36  A    between atoms: _92  and  _94
REMARK   37  A    between atoms: _94  and  _95
REMARK   38  A    between atoms: _94  and  _97
REMARK   39  A    between atoms: _97  and  _98
REMARK   40  A    between atoms: _98  and  _99
REMARK   41  A    between atoms: _99  and  _100
REMARK   42  A    between atoms: _109  and  _111
REMARK   43  A    between atoms: _111  and  _112
REMARK   44  A    between atoms: _111  and  _114
REMARK   45  A    between atoms: _116  and  _118
REMARK   46  A    between atoms: _118  and  _119
REMARK   47  A    between atoms: _118  and  _121
REMARK   48  A    between atoms: _121  and  _122
REMARK   49  A    between atoms: _132  and  _134
REMARK   50  A    between atoms: _134  and  _135
REMARK   51  A    between atoms: _134  and  _137
REMARK   52  A    between atoms: _137  and  _138
REMARK   53  A    between atoms: _141  and  _143
REMARK   54  A    between atoms: _143  and  _144
REMARK   55  A    between atoms: _143  and  _146
REMARK   56  A    between atoms: _146  and  _147
REMARK   57  A    between atoms: _152  and  _153
REMARK   58  A    between atoms: _155  and  _157
REMARK   59  A    between atoms: _157  and  _158
REMARK   60  A    between atoms: _157  and  _160
REMARK   61  A    between atoms: _160  and  _161
REMARK   62  A    between atoms: _164  and  _166
REMARK   63  A    between atoms: _166  and  _167
REMARK   64  A    between atoms: _169  and  _171
REMARK   65  A    between atoms: _171  and  _172
REMARK   66  A    between atoms: _175  and  _177
REMARK   67  A    between atoms: _177  and  _178
REMARK   68  A    between atoms: _177  and  _180
REMARK   69  A    between atoms: _180  and  _181
REMARK   70  A    between atoms: _187  and  _189
REMARK   71  A    between atoms: _189  and  _190
REMARK   72  A    between atoms: _189  and  _192
REMARK   73  A    between atoms: _192  and  _193
REMARK   74  A    between atoms: _198  and  _200
REMARK   75  A    between atoms: _200  and  _201
REMARK   76  A    between atoms: _200  and  _203
REMARK   77  A    between atoms: _203  and  _204
REMARK   78  A    between atoms: _207  and  _209
REMARK   79  A    between atoms: _209  and  _210
REMARK   80  A    between atoms: _209  and  _212
REMARK   81  A    between atoms: _212  and  _213
REMARK   82  A    between atoms: _218  and  _220
REMARK   83  A    between atoms: _220  and  _221
REMARK   84  A    between atoms: _220  and  _223
REMARK   85  A    between atoms: _223  and  _224
REMARK   86  A    between atoms: _227  and  _229
REMARK   87  A    between atoms: _229  and  _230
REMARK   88  A    between atoms: _229  and  _232
REMARK   89  A    between atoms: _235  and  _237
REMARK   90  A    between atoms: _237  and  _238
REMARK   91  A    between atoms: _237  and  _240
REMARK   92  A    between atoms: _240  and  _241
REMARK   93  A    between atoms: _251  and  _253
REMARK   94  A    between atoms: _253  and  _254
REMARK   95  A    between atoms: _253  and  _256
REMARK   96  A    between atoms: _256  and  _257
REMARK   97  A    between atoms: _260  and  _262
REMARK   98  A    between atoms: _262  and  _263
REMARK   99  A    between atoms: _265  and  _267
REMARK  100  A    between atoms: _267  and  _268
REMARK  101  A    between atoms: _267  and  _270
REMARK  102  A    between atoms: _270  and  _271
REMARK  103  A    between atoms: _276  and  _278
REMARK  104  A    between atoms: _278  and  _279
REMARK  105  A    between atoms: _281  and  _283
REMARK  106  A    between atoms: _283  and  _284
REMARK  107  A    between atoms: _283  and  _286
REMARK  108  A    between atoms: _286  and  _287
REMARK                            x       y       z     vdW  Elec       q    Type
REMARK                         _______ _______ _______ _____ _____    ______ ____
ROOT
ATOM      1  C   GLY A   3     -16.813  -7.984  45.862  0.00  0.00    +0.243 C 
ATOM      2  N   ASN A   4     -16.104  -7.969  46.969  0.00  0.00    -0.297 N 
ATOM      3  H   ASN A   4     -15.771  -8.865  47.380  0.00  0.00    +0.150 HD
ATOM      4  O   GLY A   3     -17.265  -6.938  45.319  0.00  0.00    -0.273 OA
ENDROOT
BRANCH   1   5
ATOM      5  CA  GLY A   3     -17.112  -9.357  45.326  0.00  0.00    +0.176 C 
BRANCH   5   8
ATOM      6  C   ASP A   2     -16.434 -11.652  45.947  0.00  0.00    +0.241 C 
ATOM      7  O   ASP A   2     -17.572 -11.922  46.354  0.00  0.00    -0.273 OA
ATOM      8  N   GLY A   3     -16.096 -10.427  45.547  0.00  0.00    -0.295 N 
ATOM      9  H   GLY A   3     -15.092 -10.210  45.384  0.00  0.00    +0.150 HD
BRANCH   6  10
ATOM     10  CA  ASP A   2     -15.359 -12.761  45.864  0.00  0.00    +0.160 C 
BRANCH  10  12
ATOM     11  C   TRP A   1     -13.037 -12.541  45.177  0.00  0.00    +0.239 C 
ATOM     12  N   ASP A   2     -14.027 -12.216  45.985  0.00  0.00    -0.297 N 
ATOM     13  H   ASP A   2     -13.839 -11.534  46.747  0.00  0.00    +0.150 HD
ATOM     14  O   TRP A   1     -13.168 -13.343  44.273  0.00  0.00    -0.274 OA
BRANCH  11  15
ATOM     15  CA  TRP A   1     -11.723 -11.852  45.430  0.00  0.00    +0.149 C 
BRANCH  15  16
ATOM     16  N   TRP A   1     -10.741 -12.906  45.645  0.00  0.00    -0.238 NA
ATOM     17  H   TRP A   1     -10.459 -13.497  44.837  0.00  0.00    +0.142 HD
ENDBRANCH  15  16
BRANCH  15  18
ATOM     18  CB  TRP A   1     -11.360 -10.991  44.216  0.00  0.00    +0.054 C 
BRANCH  18  19
ATOM     19  CG  TRP A   1     -12.443  -9.977  43.931  0.00  0.00    -0.002 A 
ATOM     20  CD2 TRP A   1     -12.462  -8.676  44.410  0.00  0.00    +0.013 A 
ATOM     21  CE3 TRP A   1     -11.599  -7.955  45.178  0.00  0.00    +0.001 A 
ATOM     22  CZ3 TRP A   1     -11.917  -6.634  45.458  0.00  0.00    +0.000 A 
ATOM     23  CH2 TRP A   1     -13.114  -6.061  44.991  0.00  0.00    +0.001 A 
ATOM     24  CZ2 TRP A   1     -14.001  -6.762  44.229  0.00  0.00    +0.017 A 
ATOM     25  CE2 TRP A   1     -13.656  -8.070  43.933  0.00  0.00    +0.056 A 
ATOM     26  NE1 TRP A   1     -14.324  -9.012  43.192  0.00  0.00    -0.352 N 
ATOM     27  HE1 TRP A   1     -15.236  -8.871  42.713  0.00  0.00    +0.166 HD
ATOM     28  CD1 TRP A   1     -13.606 -10.144  43.187  0.00  0.00    +0.068 A 
ENDBRANCH  18  19
ENDBRANCH  15  18
ENDBRANCH  11  15
ENDBRANCH  10  12
BRANCH  10  29
ATOM     29  CB  ASP A   2     -15.578 -13.857  46.925  0.00  0.00    +0.143 C 
BRANCH  29  30
ATOM     30  CG  ASP A   2     -14.590 -14.975  46.791  0.00  0.00    +0.367 C 
ATOM     31  OD2 ASP A   2     -13.666 -15.030  47.617  0.00  0.00    -0.246 OA
ATOM     32  OD1 ASP A   2     -14.681 -15.764  45.831  0.00  0.00    -0.246 OA
ENDBRANCH  29  30
ENDBRANCH  10  29
ENDBRANCH   6  10
ENDBRANCH   5   8
ENDBRANCH   1   5
BRANCH   2  33
ATOM     33  CA  ASN A   4     -15.783  -6.717  47.622  0.00  0.00    +0.158 C 
BRANCH  33  34
ATOM     34  C   ASN A   4     -14.627  -6.843  48.606  0.00  0.00    +0.241 C 
ATOM     35  O   ASN A   4     -14.811  -6.694  49.793  0.00  0.00    -0.273 OA
ATOM     36  N   GLY A   5     -13.451  -7.144  48.120  0.00  0.00    -0.295 N 
ATOM     37  H   GLY A   5     -13.396  -7.385  47.110  0.00  0.00    +0.150 HD
BRANCH  36  38
ATOM     38  CA  GLY A   5     -12.225  -7.167  48.878  0.00  0.00    +0.176 C 
BRANCH  38  39
ATOM     39  C   GLY A   5     -11.456  -8.466  48.654  0.00  0.00    +0.243 C 
ATOM     40  N   TRP A   6     -10.168  -8.403  48.904  0.00  0.00    -0.298 N 
ATOM     41  H   TRP A   6      -9.777  -7.484  49.194  0.00  0.00    +0.150 HD
ATOM     42  O   GLY A   5     -12.018  -9.483  48.259  0.00  0.00    -0.273 OA
BRANCH  40  43
ATOM     43  CA  TRP A   6      -9.255  -9.518  48.805  0.00  0.00    +0.141 C 
BRANCH  43  44
ATOM     44  C   TRP A   6      -9.067 -10.143  50.170  0.00  0.00    +0.227 C 
ATOM     45  O   TRP A   6      -8.798  -9.436  51.144  0.00  0.00    -0.286 OA
ENDBRANCH  43  44
BRANCH  43  46
ATOM     46  CB  TRP A   6      -7.921  -9.045  48.254  0.00  0.00    +0.056 C 
BRANCH  46  47
ATOM     47  CG  TRP A   6      -7.997  -8.655  46.796  0.00  0.00    -0.002 A 
ATOM     48  CD1 TRP A   6      -8.139  -7.413  46.301  0.00  0.00    +0.068 A 
ATOM     49  NE1 TRP A   6      -8.154  -7.435  44.929  0.00  0.00    -0.352 N 
ATOM     50  CE2 TRP A   6      -8.047  -8.737  44.524  0.00  0.00    +0.056 A 
ATOM     51  CZ2 TRP A   6      -7.979  -9.276  43.244  0.00  0.00    +0.017 A 
ATOM     52  CH2 TRP A   6      -7.780 -10.636  43.140  0.00  0.00    +0.001 A 
ATOM     53  CZ3 TRP A   6      -7.695 -11.425  44.267  0.00  0.00    +0.000 A 
ATOM     54  CE3 TRP A   6      -7.757 -10.912  45.526  0.00  0.00    +0.001 A 
ATOM     55  HE1 TRP A   6      -8.233  -6.606  44.306  0.00  0.00    +0.166 HD
ATOM     56  CD2 TRP A   6      -7.926  -9.528  45.678  0.00  0.00    +0.013 A 
ENDBRANCH  46  47
ENDBRANCH  43  46
ENDBRANCH  40  43
ENDBRANCH  38  39
ENDBRANCH  36  38
ENDBRANCH  33  34
BRANCH  33  57
ATOM     57  CB  ASN A   4     -17.026  -6.192  48.371  0.00  0.00    +0.114 C 
BRANCH  57  58
ATOM     58  CG  ASN A   4     -16.794  -4.817  49.024  0.00  0.00    +0.222 C 
ATOM     59  ND2 ASN A   4     -17.239  -4.675  50.229  0.00  0.00    -0.329 N 
ATOM     60 HD21 ASN A   4     -17.101  -3.775  50.731  0.00  0.00    +0.145 HD
ATOM     61 HD22 ASN A   4     -17.735  -5.461  50.696  0.00  0.00    +0.145 HD
ATOM     62  OD1 ASN A   4     -16.198  -3.903  48.434  0.00  0.00    -0.275 OA
ENDBRANCH  57  58
ENDBRANCH  33  57
ENDBRANCH   2  33
TORSDOF 20
REMARK  Name = ../refined-set-2016/4csd/4csd_pocket.pdb
REMARK  108 active torsions:
REMARK  status: ('A' for Active; 'I' for Inactive)
REMARK    1  A    between atoms: _1  and  _3
REMARK    2  A    between atoms: _3  and  _4
REMARK    3  A    between atoms: _3  and  _6
REMARK    4  A    between atoms: _6  and  _7
REMARK    5  A    between atoms: _10  and  _12
REMARK    6  A    between atoms: _12  and  _13
REMARK    7  A    between atoms: _12  and  _15
REMARK    8  A    between atoms: _15  and  _16
REMARK    9  A    between atoms: _26  and  _28
REMARK   10  A    between atoms: _28  and  _29
REMARK   11  A    between atoms: _28  and  _31
REMARK   12  A    between atoms: _31  and  _32
REMARK   13  A    between atoms: _34  and  _36
REMARK   14  A    between atoms: _36  and  _37
REMARK   15  A    between atoms: _36  and  _39
REMARK   16  A    between atoms: _39  and  _40
REMARK   17  A    between atoms: _43  and  _45
REMARK   18  A    between atoms: _45  and  _46
REMARK   19  A    between atoms: _45  and  _48
REMARK   20  A    between atoms: _48  and  _49
REMARK   21  A    between atoms: _49  and  _50
REMARK   22  A    between atoms: _50  and  _51
REMARK   23  A    between atoms: _60  and  _62
REMARK   24  A    between atoms: _62  and  _63
REMARK   25  A    between atoms: _62  and  _65
REMARK   26  A    between atoms: _68  and  _70
REMARK   27  A    between atoms: _70  and  _71
REMARK   28  A    between atoms: _70  and  _73
REMARK   29  A    between atoms: _73  and  _74
REMARK   30  A    between atoms: _79  and  _80
REMARK   31  A    between atoms: _82  and  _84
REMARK   32  A    between atoms: _84  and  _85
REMARK   33  A    between atoms: _84  and  _87
REMARK   34  A    between atoms: _87  and  _88
REMARK   35  A    between atoms: _88  and  _89
REMARK   36  A    between atoms: _92  and  _94
REMARK   37  A    between atoms: _94  and  _95
REMARK   38  A    between atoms: _94  and  _97
REMARK   39  A    between atoms: _97  and  _98
REMARK   40  A    between atoms: _98  and  _99
REMARK   41  A    between atoms: _99  and  _100
REMARK   42  A    between atoms: _109  and  _111
REMARK   43  A    between atoms: _111  and  _112
REMARK   44  A    between atoms: _111  and  _114
REMARK   45  A    between atoms: _116  and  _118
REMARK   46  A    between atoms: _118  and  _119
REMARK   47  A    between atoms: _118  and  _121
REMARK   48  A    between atoms: _121  and  _122
REMARK   49  A    between atoms: _132  and  _134
REMARK   50  A    between atoms: _134  and  _135
REMARK   51  A    between atoms: _134  and  _137
REMARK   52  A    between atoms: _137  and  _138
REMARK   53  A    between atoms: _141  and  _143
REMARK   54  A    between atoms: _143  and  _144
REMARK   55  A    between atoms: _143  and  _146
REMARK   56  A    between atoms: _146  and  _147
REMARK   57  A    between atoms: _152  and  _153
REMARK   58  A    between atoms: _155  and  _157
REMARK   59  A    between atoms: _157  and  _158
REMARK   60  A    between atoms: _157  and  _160
REMARK   61  A    between atoms: _160  and  _161
REMARK   62  A    between atoms: _164  and  _166
REMARK   63  A    between atoms: _166  and  _167
REMARK   64  A    between atoms: _169  and  _171
REMARK   65  A    between atoms: _171  and  _172
REMARK   66  A    between atoms: _175  and  _177
REMARK   67  A    between atoms: _177  and  _178
REMARK   68  A    between atoms: _177  and  _180
REMARK   69  A    between atoms: _180  and  _181
REMARK   70  A    between atoms: _187  and  _189
REMARK   71  A    between atoms: _189  and  _190
REMARK   72  A    between atoms: _189  and  _192
REMARK   73  A    between atoms: _192  and  _193
REMARK   74  A    between atoms: _198  and  _200
REMARK   75  A    between atoms: _200  and  _201
REMARK   76  A    between atoms: _200  and  _203
REMARK   77  A    between atoms: _203  and  _204
REMARK   78  A    between atoms: _207  and  _209
REMARK   79  A    between atoms: _209  and  _210
REMARK   80  A    between atoms: _209  and  _212
REMARK   81  A    between atoms: _212  and  _213
REMARK   82  A    between atoms: _218  and  _220
REMARK   83  A    between atoms: _220  and  _221
REMARK   84  A    between atoms: _220  and  _223
REMARK   85  A    between atoms: _223  and  _224
REMARK   86  A    between atoms: _227  and  _229
REMARK   87  A    between atoms: _229  and  _230
REMARK   88  A    between atoms: _229  and  _232
REMARK   89  A    between atoms: _235  and  _237
REMARK   90  A    between atoms: _237  and  _238
REMARK   91  A    between atoms: _237  and  _240
REMARK   92  A    between atoms: _240  and  _241
REMARK   93  A    between atoms: _251  and  _253
REMARK   94  A    between atoms: _253  and  _254
REMARK   95  A    between atoms: _253  and  _256
REMARK   96  A    between atoms: _256  and  _257
REMARK   97  A    between atoms: _260  and  _262
REMARK   98  A    between atoms: _262  and  _263
REMARK   99  A    between atoms: _265  and  _267
REMARK  100  A    between atoms: _267  and  _268
REMARK  101  A    between atoms: _267  and  _270
REMARK  102  A    between atoms: _270  and  _271
REMARK  103  A    between atoms: _276  and  _278
REMARK  104  A    between atoms: _278  and  _279
REMARK  105  A    between atoms: _281  and  _283
REMARK  106  A    between atoms: _283  and  _284
REMARK  107  A    between atoms: _283  and  _286
REMARK  108  A    between atoms: _286  and  _287
REMARK                            x       y       z     vdW  Elec       q    Type
REMARK                         _______ _______ _______ _____ _____    ______ ____
ROOT
ATOM      1  O   HOH     1     -17.281   0.147  35.291  0.00  0.00    +0.000 OA
ENDROOT
TORSDOF 0
REMARK  Name = ../refined-set-2016/4csd/4csd_pocket.pdb
REMARK  108 active torsions:
REMARK  status: ('A' for Active; 'I' for Inactive)
REMARK    1  A    between atoms: _1  and  _3
REMARK    2  A    between atoms: _3  and  _4
REMARK    3  A    between atoms: _3  and  _6
REMARK    4  A    between atoms: _6  and  _7
REMARK    5  A    between atoms: _10  and  _12
REMARK    6  A    between atoms: _12  and  _13
REMARK    7  A    between atoms: _12  and  _15
REMARK    8  A    between atoms: _15  and  _16
REMARK    9  A    between atoms: _26  and  _28
REMARK   10  A    between atoms: _28  and  _29
REMARK   11  A    between atoms: _28  and  _31
REMARK   12  A    between atoms: _31  and  _32
REMARK   13  A    between atoms: _34  and  _36
REMARK   14  A    between atoms: _36  and  _37
REMARK   15  A    between atoms: _36  and  _39
REMARK   16  A    between atoms: _39  and  _40
REMARK   17  A    between atoms: _43  and  _45
REMARK   18  A    between atoms: _45  and  _46
REMARK   19  A    between atoms: _45  and  _48
REMARK   20  A    between atoms: _48  and  _49
REMARK   21  A    between atoms: _49  and  _50
REMARK   22  A    between atoms: _50  and  _51
REMARK   23  A    between atoms: _60  and  _62
REMARK   24  A    between atoms: _62  and  _63
REMARK   25  A    between atoms: _62  and  _65
REMARK   26  A    between atoms: _68  and  _70
REMARK   27  A    between atoms: _70  and  _71
REMARK   28  A    between atoms: _70  and  _73
REMARK   29  A    between atoms: _73  and  _74
REMARK   30  A    between atoms: _79  and  _80
REMARK   31  A    between atoms: _82  and  _84
REMARK   32  A    between atoms: _84  and  _85
REMARK   33  A    between atoms: _84  and  _87
REMARK   34  A    between atoms: _87  and  _88
REMARK   35  A    between atoms: _88  and  _89
REMARK   36  A    between atoms: _92  and  _94
REMARK   37  A    between atoms: _94  and  _95
REMARK   38  A    between atoms: _94  and  _97
REMARK   39  A    between atoms: _97  and  _98
REMARK   40  A    between atoms: _98  and  _99
REMARK   41  A    between atoms: _99  and  _100
REMARK   42  A    between atoms: _109  and  _111
REMARK   43  A    between atoms: _111  and  _112
REMARK   44  A    between atoms: _111  and  _114
REMARK   45  A    between atoms: _116  and  _118
REMARK   46  A    between atoms: _118  and  _119
REMARK   47  A    between atoms: _118  and  _121
REMARK   48  A    between atoms: _121  and  _122
REMARK   49  A    between atoms: _132  and  _134
REMARK   50  A    between atoms: _134  and  _135
REMARK   51  A    between atoms: _134  and  _137
REMARK   52  A    between atoms: _137  and  _138
REMARK   53  A    between atoms: _141  and  _143
REMARK   54  A    between atoms: _143  and  _144
REMARK   55  A    between atoms: _143  and  _146
REMARK   56  A    between atoms: _146  and  _147
REMARK   57  A    between atoms: _152  and  _153
REMARK   58  A    between atoms: _155  and  _157
REMARK   59  A    between atoms: _157  and  _158
REMARK   60  A    between atoms: _157  and  _160
REMARK   61  A    between atoms: _160  and  _161
REMARK   62  A    between atoms: _164  and  _166
REMARK   63  A    between atoms: _166  and  _167
REMARK   64  A    between atoms: _169  and  _171
REMARK   65  A    between atoms: _171  and  _172
REMARK   66  A    between atoms: _175  and  _177
REMARK   67  A    between atoms: _177  and  _178
REMARK   68  A    between atoms: _177  and  _180
REMARK   69  A    between atoms: _180  and  _181
REMARK   70  A    between atoms: _187  and  _189
REMARK   71  A    between atoms: _189  and  _190
REMARK   72  A    between atoms: _189  and  _192
REMARK   73  A    between atoms: _192  and  _193
REMARK   74  A    between atoms: _198  and  _200
REMARK   75  A    between atoms: _200  and  _201
REMARK   76  A    between atoms: _200  and  _203
REMARK   77  A    between atoms: _203  and  _204
REMARK   78  A    between atoms: _207  and  _209
REMARK   79  A    between atoms: _209  and  _210
REMARK   80  A    between atoms: _209  and  _212
REMARK   81  A    between atoms: _212  and  _213
REMARK   82  A    between atoms: _218  and  _220
REMARK   83  A    between atoms: _220  and  _221
REMARK   84  A    between atoms: _220  and  _223
REMARK   85  A    between atoms: _223  and  _224
REMARK   86  A    between atoms: _227  and  _229
REMARK   87  A    between atoms: _229  and  _230
REMARK   88  A    between atoms: _229  and  _232
REMARK   89  A    between atoms: _235  and  _237
REMARK   90  A    between atoms: _237  and  _238
REMARK   91  A    between atoms: _237  and  _240
REMARK   92  A    between atoms: _240  and  _241
REMARK   93  A    between atoms: _251  and  _253
REMARK   94  A    between atoms: _253  and  _254
REMARK   95  A    between atoms: _253  and  _256
REMARK   96  A    between atoms: _256  and  _257
REMARK   97  A    between atoms: _260  and  _262
REMARK   98  A    between atoms: _262  and  _263
REMARK   99  A    between atoms: _265  and  _267
REMARK  100  A    between atoms: _267  and  _268
REMARK  101  A    between atoms: _267  and  _270
REMARK  102  A    between atoms: _270  and  _271
REMARK  103  A    between atoms: _276  and  _278
REMARK  104  A    between atoms: _278  and  _279
REMARK  105  A    between atoms: _281  and  _283
REMARK  106  A    between atoms: _283  and  _284
REMARK  107  A    between atoms: _283  and  _286
REMARK  108  A    between atoms: _286  and  _287
REMARK                            x       y       z     vdW  Elec       q    Type
REMARK                         _______ _______ _______ _____ _____    ______ ____
ROOT
ATOM      1  O   HOH     1     -17.322  -3.106  41.428  0.00  0.00    +0.000 OA
ENDROOT
TORSDOF 0
REMARK  Name = ../refined-set-2016/4csd/4csd_pocket.pdb
REMARK  108 active torsions:
REMARK  status: ('A' for Active; 'I' for Inactive)
REMARK    1  A    between atoms: _1  and  _3
REMARK    2  A    between atoms: _3  and  _4
REMARK    3  A    between atoms: _3  and  _6
REMARK    4  A    between atoms: _6  and  _7
REMARK    5  A    between atoms: _10  and  _12
REMARK    6  A    between atoms: _12  and  _13
REMARK    7  A    between atoms: _12  and  _15
REMARK    8  A    between atoms: _15  and  _16
REMARK    9  A    between atoms: _26  and  _28
REMARK   10  A    between atoms: _28  and  _29
REMARK   11  A    between atoms: _28  and  _31
REMARK   12  A    between atoms: _31  and  _32
REMARK   13  A    between atoms: _34  and  _36
REMARK   14  A    between atoms: _36  and  _37
REMARK   15  A    between atoms: _36  and  _39
REMARK   16  A    between atoms: _39  and  _40
REMARK   17  A    between atoms: _43  and  _45
REMARK   18  A    between atoms: _45  and  _46
REMARK   19  A    between atoms: _45  and  _48
REMARK   20  A    between atoms: _48  and  _49
REMARK   21  A    between atoms: _49  and  _50
REMARK   22  A    between atoms: _50  and  _51
REMARK   23  A    between atoms: _60  and  _62
REMARK   24  A    between atoms: _62  and  _63
REMARK   25  A    between atoms: _62  and  _65
REMARK   26  A    between atoms: _68  and  _70
REMARK   27  A    between atoms: _70  and  _71
REMARK   28  A    between atoms: _70  and  _73
REMARK   29  A    between atoms: _73  and  _74
REMARK   30  A    between atoms: _79  and  _80
REMARK   31  A    between atoms: _82  and  _84
REMARK   32  A    between atoms: _84  and  _85
REMARK   33  A    between atoms: _84  and  _87
REMARK   34  A    between atoms: _87  and  _88
REMARK   35  A    between atoms: _88  and  _89
REMARK   36  A    between atoms: _92  and  _94
REMARK   37  A    between atoms: _94  and  _95
REMARK   38  A    between atoms: _94  and  _97
REMARK   39  A    between atoms: _97  and  _98
REMARK   40  A    between atoms: _98  and  _99
REMARK   41  A    between atoms: _99  and  _100
REMARK   42  A    between atoms: _109  and  _111
REMARK   43  A    between atoms: _111  and  _112
REMARK   44  A    between atoms: _111  and  _114
REMARK   45  A    between atoms: _116  and  _118
REMARK   46  A    between atoms: _118  and  _119
REMARK   47  A    between atoms: _118  and  _121
REMARK   48  A    between atoms: _121  and  _122
REMARK   49  A    between atoms: _132  and  _134
REMARK   50  A    between atoms: _134  and  _135
REMARK   51  A    between atoms: _134  and  _137
REMARK   52  A    between atoms: _137  and  _138
REMARK   53  A    between atoms: _141  and  _143
REMARK   54  A    between atoms: _143  and  _144
REMARK   55  A    between atoms: _143  and  _146
REMARK   56  A    between atoms: _146  and  _147
REMARK   57  A    between atoms: _152  and  _153
REMARK   58  A    between atoms: _155  and  _157
REMARK   59  A    between atoms: _157  and  _158
REMARK   60  A    between atoms: _157  and  _160
REMARK   61  A    between atoms: _160  and  _161
REMARK   62  A    between atoms: _164  and  _166
REMARK   63  A    between atoms: _166  and  _167
REMARK   64  A    between atoms: _169  and  _171
REMARK   65  A    between atoms: _171  and  _172
REMARK   66  A    between atoms: _175  and  _177
REMARK   67  A    between atoms: _177  and  _178
REMARK   68  A    between atoms: _177  and  _180
REMARK   69  A    between atoms: _180  and  _181
REMARK   70  A    between atoms: _187  and  _189
REMARK   71  A    between atoms: _189  and  _190
REMARK   72  A    between atoms: _189  and  _192
REMARK   73  A    between atoms: _192  and  _193
REMARK   74  A    between atoms: _198  and  _200
REMARK   75  A    between atoms: _200  and  _201
REMARK   76  A    between atoms: _200  and  _203
REMARK   77  A    between atoms: _203  and  _204
REMARK   78  A    between atoms: _207  and  _209
REMARK   79  A    between atoms: _209  and  _210
REMARK   80  A    between atoms: _209  and  _212
REMARK   81  A    between atoms: _212  and  _213
REMARK   82  A    between atoms: _218  and  _220
REMARK   83  A    between atoms: _220  and  _221
REMARK   84  A    between atoms: _220  and  _223
REMARK   85  A    between atoms: _223  and  _224
REMARK   86  A    between atoms: _227  and  _229
REMARK   87  A    between atoms: _229  and  _230
REMARK   88  A    between atoms: _229  and  _232
REMARK   89  A    between atoms: _235  and  _237
REMARK   90  A    between atoms: _237  and  _238
REMARK   91  A    between atoms: _237  and  _240
REMARK   92  A    between atoms: _240  and  _241
REMARK   93  A    between atoms: _251  and  _253
REMARK   94  A    between atoms: _253  and  _254
REMARK   95  A    between atoms: _253  and  _256
REMARK   96  A    between atoms: _256  and  _257
REMARK   97  A    between atoms: _260  and  _262
REMARK   98  A    between atoms: _262  and  _263
REMARK   99  A    between atoms: _265  and  _267
REMARK  100  A    between atoms: _267  and  _268
REMARK  101  A    between atoms: _267  and  _270
REMARK  102  A    between atoms: _270  and  _271
REMARK  103  A    between atoms: _276  and  _278
REMARK  104  A    between atoms: _278  and  _279
REMARK  105  A    between atoms: _281  and  _283
REMARK  106  A    between atoms: _283  and  _284
REMARK  107  A    between atoms: _283  and  _286
REMARK  108  A    between atoms: _286  and  _287
REMARK                            x       y       z     vdW  Elec       q    Type
REMARK                         _______ _______ _______ _____ _____    ______ ____
ROOT
ATOM      1  O   HOH     1     -17.999  -8.197  35.530  0.00  0.00    +0.000 OA
ENDROOT
TORSDOF 0
REMARK  Name = ../refined-set-2016/4csd/4csd_pocket.pdb
REMARK  108 active torsions:
REMARK  status: ('A' for Active; 'I' for Inactive)
REMARK    1  A    between atoms: _1  and  _3
REMARK    2  A    between atoms: _3  and  _4
REMARK    3  A    between atoms: _3  and  _6
REMARK    4  A    between atoms: _6  and  _7
REMARK    5  A    between atoms: _10  and  _12
REMARK    6  A    between atoms: _12  and  _13
REMARK    7  A    between atoms: _12  and  _15
REMARK    8  A    between atoms: _15  and  _16
REMARK    9  A    between atoms: _26  and  _28
REMARK   10  A    between atoms: _28  and  _29
REMARK   11  A    between atoms: _28  and  _31
REMARK   12  A    between atoms: _31  and  _32
REMARK   13  A    between atoms: _34  and  _36
REMARK   14  A    between atoms: _36  and  _37
REMARK   15  A    between atoms: _36  and  _39
REMARK   16  A    between atoms: _39  and  _40
REMARK   17  A    between atoms: _43  and  _45
REMARK   18  A    between atoms: _45  and  _46
REMARK   19  A    between atoms: _45  and  _48
REMARK   20  A    between atoms: _48  and  _49
REMARK   21  A    between atoms: _49  and  _50
REMARK   22  A    between atoms: _50  and  _51
REMARK   23  A    between atoms: _60  and  _62
REMARK   24  A    between atoms: _62  and  _63
REMARK   25  A    between atoms: _62  and  _65
REMARK   26  A    between atoms: _68  and  _70
REMARK   27  A    between atoms: _70  and  _71
REMARK   28  A    between atoms: _70  and  _73
REMARK   29  A    between atoms: _73  and  _74
REMARK   30  A    between atoms: _79  and  _80
REMARK   31  A    between atoms: _82  and  _84
REMARK   32  A    between atoms: _84  and  _85
REMARK   33  A    between atoms: _84  and  _87
REMARK   34  A    between atoms: _87  and  _88
REMARK   35  A    between atoms: _88  and  _89
REMARK   36  A    between atoms: _92  and  _94
REMARK   37  A    between atoms: _94  and  _95
REMARK   38  A    between atoms: _94  and  _97
REMARK   39  A    between atoms: _97  and  _98
REMARK   40  A    between atoms: _98  and  _99
REMARK   41  A    between atoms: _99  and  _100
REMARK   42  A    between atoms: _109  and  _111
REMARK   43  A    between atoms: _111  and  _112
REMARK   44  A    between atoms: _111  and  _114
REMARK   45  A    between atoms: _116  and  _118
REMARK   46  A    between atoms: _118  and  _119
REMARK   47  A    between atoms: _118  and  _121
REMARK   48  A    between atoms: _121  and  _122
REMARK   49  A    between atoms: _132  and  _134
REMARK   50  A    between atoms: _134  and  _135
REMARK   51  A    between atoms: _134  and  _137
REMARK   52  A    between atoms: _137  and  _138
REMARK   53  A    between atoms: _141  and  _143
REMARK   54  A    between atoms: _143  and  _144
REMARK   55  A    between atoms: _143  and  _146
REMARK   56  A    between atoms: _146  and  _147
REMARK   57  A    between atoms: _152  and  _153
REMARK   58  A    between atoms: _155  and  _157
REMARK   59  A    between atoms: _157  and  _158
REMARK   60  A    between atoms: _157  and  _160
REMARK   61  A    between atoms: _160  and  _161
REMARK   62  A    between atoms: _164  and  _166
REMARK   63  A    between atoms: _166  and  _167
REMARK   64  A    between atoms: _169  and  _171
REMARK   65  A    between atoms: _171  and  _172
REMARK   66  A    between atoms: _175  and  _177
REMARK   67  A    between atoms: _177  and  _178
REMARK   68  A    between atoms: _177  and  _180
REMARK   69  A    between atoms: _180  and  _181
REMARK   70  A    between atoms: _187  and  _189
REMARK   71  A    between atoms: _189  and  _190
REMARK   72  A    between atoms: _189  and  _192
REMARK   73  A    between atoms: _192  and  _193
REMARK   74  A    between atoms: _198  and  _200
REMARK   75  A    between atoms: _200  and  _201
REMARK   76  A    between atoms: _200  and  _203
REMARK   77  A    between atoms: _203  and  _204
REMARK   78  A    between atoms: _207  and  _209
REMARK   79  A    between atoms: _209  and  _210
REMARK   80  A    between atoms: _209  and  _212
REMARK   81  A    between atoms: _212  and  _213
REMARK   82  A    between atoms: _218  and  _220
REMARK   83  A    between atoms: _220  and  _221
REMARK   84  A    between atoms: _220  and  _223
REMARK   85  A    between atoms: _223  and  _224
REMARK   86  A    between atoms: _227  and  _229
REMARK   87  A    between atoms: _229  and  _230
REMARK   88  A    between atoms: _229  and  _232
REMARK   89  A    between atoms: _235  and  _237
REMARK   90  A    between atoms: _237  and  _238
REMARK   91  A    between atoms: _237  and  _240
REMARK   92  A    between atoms: _240  and  _241
REMARK   93  A    between atoms: _251  and  _253
REMARK   94  A    between atoms: _253  and  _254
REMARK   95  A    between atoms: _253  and  _256
REMARK   96  A    between atoms: _256  and  _257
REMARK   97  A    between atoms: _260  and  _262
REMARK   98  A    between atoms: _262  and  _263
REMARK   99  A    between atoms: _265  and  _267
REMARK  100  A    between atoms: _267  and  _268
REMARK  101  A    between atoms: _267  and  _270
REMARK  102  A    between atoms: _270  and  _271
REMARK  103  A    between atoms: _276  and  _278
REMARK  104  A    between atoms: _278  and  _279
REMARK  105  A    between atoms: _281  and  _283
REMARK  106  A    between atoms: _283  and  _284
REMARK  107  A    between atoms: _283  and  _286
REMARK  108  A    between atoms: _286  and  _287
REMARK                            x       y       z     vdW  Elec       q    Type
REMARK                         _______ _______ _______ _____ _____    ______ ____
ROOT
ATOM      1  O   HOH     1     -15.589  -5.671  38.408  0.00  0.00    +0.000 OA
ENDROOT
TORSDOF 0
REMARK  Name = ../refined-set-2016/4csd/4csd_pocket.pdb
REMARK  108 active torsions:
REMARK  status: ('A' for Active; 'I' for Inactive)
REMARK    1  A    between atoms: _1  and  _3
REMARK    2  A    between atoms: _3  and  _4
REMARK    3  A    between atoms: _3  and  _6
REMARK    4  A    between atoms: _6  and  _7
REMARK    5  A    between atoms: _10  and  _12
REMARK    6  A    between atoms: _12  and  _13
REMARK    7  A    between atoms: _12  and  _15
REMARK    8  A    between atoms: _15  and  _16
REMARK    9  A    between atoms: _26  and  _28
REMARK   10  A    between atoms: _28  and  _29
REMARK   11  A    between atoms: _28  and  _31
REMARK   12  A    between atoms: _31  and  _32
REMARK   13  A    between atoms: _34  and  _36
REMARK   14  A    between atoms: _36  and  _37
REMARK   15  A    between atoms: _36  and  _39
REMARK   16  A    between atoms: _39  and  _40
REMARK   17  A    between atoms: _43  and  _45
REMARK   18  A    between atoms: _45  and  _46
REMARK   19  A    between atoms: _45  and  _48
REMARK   20  A    between atoms: _48  and  _49
REMARK   21  A    between atoms: _49  and  _50
REMARK   22  A    between atoms: _50  and  _51
REMARK   23  A    between atoms: _60  and  _62
REMARK   24  A    between atoms: _62  and  _63
REMARK   25  A    between atoms: _62  and  _65
REMARK   26  A    between atoms: _68  and  _70
REMARK   27  A    between atoms: _70  and  _71
REMARK   28  A    between atoms: _70  and  _73
REMARK   29  A    between atoms: _73  and  _74
REMARK   30  A    between atoms: _79  and  _80
REMARK   31  A    between atoms: _82  and  _84
REMARK   32  A    between atoms: _84  and  _85
REMARK   33  A    between atoms: _84  and  _87
REMARK   34  A    between atoms: _87  and  _88
REMARK   35  A    between atoms: _88  and  _89
REMARK   36  A    between atoms: _92  and  _94
REMARK   37  A    between atoms: _94  and  _95
REMARK   38  A    between atoms: _94  and  _97
REMARK   39  A    between atoms: _97  and  _98
REMARK   40  A    between atoms: _98  and  _99
REMARK   41  A    between atoms: _99  and  _100
REMARK   42  A    between atoms: _109  and  _111
REMARK   43  A    between atoms: _111  and  _112
REMARK   44  A    between atoms: _111  and  _114
REMARK   45  A    between atoms: _116  and  _118
REMARK   46  A    between atoms: _118  and  _119
REMARK   47  A    between atoms: _118  and  _121
REMARK   48  A    between atoms: _121  and  _122
REMARK   49  A    between atoms: _132  and  _134
REMARK   50  A    between atoms: _134  and  _135
REMARK   51  A    between atoms: _134  and  _137
REMARK   52  A    between atoms: _137  and  _138
REMARK   53  A    between atoms: _141  and  _143
REMARK   54  A    between atoms: _143  and  _144
REMARK   55  A    between atoms: _143  and  _146
REMARK   56  A    between atoms: _146  and  _147
REMARK   57  A    between atoms: _152  and  _153
REMARK   58  A    between atoms: _155  and  _157
REMARK   59  A    between atoms: _157  and  _158
REMARK   60  A    between atoms: _157  and  _160
REMARK   61  A    between atoms: _160  and  _161
REMARK   62  A    between atoms: _164  and  _166
REMARK   63  A    between atoms: _166  and  _167
REMARK   64  A    between atoms: _169  and  _171
REMARK   65  A    between atoms: _171  and  _172
REMARK   66  A    between atoms: _175  and  _177
REMARK   67  A    between atoms: _177  and  _178
REMARK   68  A    between atoms: _177  and  _180
REMARK   69  A    between atoms: _180  and  _181
REMARK   70  A    between atoms: _187  and  _189
REMARK   71  A    between atoms: _189  and  _190
REMARK   72  A    between atoms: _189  and  _192
REMARK   73  A    between atoms: _192  and  _193
REMARK   74  A    between atoms: _198  and  _200
REMARK   75  A    between atoms: _200  and  _201
REMARK   76  A    between atoms: _200  and  _203
REMARK   77  A    between atoms: _203  and  _204
REMARK   78  A    between atoms: _207  and  _209
REMARK   79  A    between atoms: _209  and  _210
REMARK   80  A    between atoms: _209  and  _212
REMARK   81  A    between atoms: _212  and  _213
REMARK   82  A    between atoms: _218  and  _220
REMARK   83  A    between atoms: _220  and  _221
REMARK   84  A    between atoms: _220  and  _223
REMARK   85  A    between atoms: _223  and  _224
REMARK   86  A    between atoms: _227  and  _229
REMARK   87  A    between atoms: _229  and  _230
REMARK   88  A    between atoms: _229  and  _232
REMARK   89  A    between atoms: _235  and  _237
REMARK   90  A    between atoms: _237  and  _238
REMARK   91  A    between atoms: _237  and  _240
REMARK   92  A    between atoms: _240  and  _241
REMARK   93  A    between atoms: _251  and  _253
REMARK   94  A    between atoms: _253  and  _254
REMARK   95  A    between atoms: _253  and  _256
REMARK   96  A    between atoms: _256  and  _257
REMARK   97  A    between atoms: _260  and  _262
REMARK   98  A    between atoms: _262  and  _263
REMARK   99  A    between atoms: _265  and  _267
REMARK  100  A    between atoms: _267  and  _268
REMARK  101  A    between atoms: _267  and  _270
REMARK  102  A    between atoms: _270  and  _271
REMARK  103  A    between atoms: _276  and  _278
REMARK  104  A    between atoms: _278  and  _279
REMARK  105  A    between atoms: _281  and  _283
REMARK  106  A    between atoms: _283  and  _284
REMARK  107  A    between atoms: _283  and  _286
REMARK  108  A    between atoms: _286  and  _287
REMARK                            x       y       z     vdW  Elec       q    Type
REMARK                         _______ _______ _______ _____ _____    ______ ____
ROOT
ATOM      1  O   HOH     1      -2.502  -2.763  42.209  0.00  0.00    +0.000 OA
ENDROOT
TORSDOF 0
REMARK  Name = ../refined-set-2016/4csd/4csd_pocket.pdb
REMARK  108 active torsions:
REMARK  status: ('A' for Active; 'I' for Inactive)
REMARK    1  A    between atoms: _1  and  _3
REMARK    2  A    between atoms: _3  and  _4
REMARK    3  A    between atoms: _3  and  _6
REMARK    4  A    between atoms: _6  and  _7
REMARK    5  A    between atoms: _10  and  _12
REMARK    6  A    between atoms: _12  and  _13
REMARK    7  A    between atoms: _12  and  _15
REMARK    8  A    between atoms: _15  and  _16
REMARK    9  A    between atoms: _26  and  _28
REMARK   10  A    between atoms: _28  and  _29
REMARK   11  A    between atoms: _28  and  _31
REMARK   12  A    between atoms: _31  and  _32
REMARK   13  A    between atoms: _34  and  _36
REMARK   14  A    between atoms: _36  and  _37
REMARK   15  A    between atoms: _36  and  _39
REMARK   16  A    between atoms: _39  and  _40
REMARK   17  A    between atoms: _43  and  _45
REMARK   18  A    between atoms: _45  and  _46
REMARK   19  A    between atoms: _45  and  _48
REMARK   20  A    between atoms: _48  and  _49
REMARK   21  A    between atoms: _49  and  _50
REMARK   22  A    between atoms: _50  and  _51
REMARK   23  A    between atoms: _60  and  _62
REMARK   24  A    between atoms: _62  and  _63
REMARK   25  A    between atoms: _62  and  _65
REMARK   26  A    between atoms: _68  and  _70
REMARK   27  A    between atoms: _70  and  _71
REMARK   28  A    between atoms: _70  and  _73
REMARK   29  A    between atoms: _73  and  _74
REMARK   30  A    between atoms: _79  and  _80
REMARK   31  A    between atoms: _82  and  _84
REMARK   32  A    between atoms: _84  and  _85
REMARK   33  A    between atoms: _84  and  _87
REMARK   34  A    between atoms: _87  and  _88
REMARK   35  A    between atoms: _88  and  _89
REMARK   36  A    between atoms: _92  and  _94
REMARK   37  A    between atoms: _94  and  _95
REMARK   38  A    between atoms: _94  and  _97
REMARK   39  A    between atoms: _97  and  _98
REMARK   40  A    between atoms: _98  and  _99
REMARK   41  A    between atoms: _99  and  _100
REMARK   42  A    between atoms: _109  and  _111
REMARK   43  A    between atoms: _111  and  _112
REMARK   44  A    between atoms: _111  and  _114
REMARK   45  A    between atoms: _116  and  _118
REMARK   46  A    between atoms: _118  and  _119
REMARK   47  A    between atoms: _118  and  _121
REMARK   48  A    between atoms: _121  and  _122
REMARK   49  A    between atoms: _132  and  _134
REMARK   50  A    between atoms: _134  and  _135
REMARK   51  A    between atoms: _134  and  _137
REMARK   52  A    between atoms: _137  and  _138
REMARK   53  A    between atoms: _141  and  _143
REMARK   54  A    between atoms: _143  and  _144
REMARK   55  A    between atoms: _143  and  _146
REMARK   56  A    between atoms: _146  and  _147
REMARK   57  A    between atoms: _152  and  _153
REMARK   58  A    between atoms: _155  and  _157
REMARK   59  A    between atoms: _157  and  _158
REMARK   60  A    between atoms: _157  and  _160
REMARK   61  A    between atoms: _160  and  _161
REMARK   62  A    between atoms: _164  and  _166
REMARK   63  A    between atoms: _166  and  _167
REMARK   64  A    between atoms: _169  and  _171
REMARK   65  A    between atoms: _171  and  _172
REMARK   66  A    between atoms: _175  and  _177
REMARK   67  A    between atoms: _177  and  _178
REMARK   68  A    between atoms: _177  and  _180
REMARK   69  A    between atoms: _180  and  _181
REMARK   70  A    between atoms: _187  and  _189
REMARK   71  A    between atoms: _189  and  _190
REMARK   72  A    between atoms: _189  and  _192
REMARK   73  A    between atoms: _192  and  _193
REMARK   74  A    between atoms: _198  and  _200
REMARK   75  A    between atoms: _200  and  _201
REMARK   76  A    between atoms: _200  and  _203
REMARK   77  A    between atoms: _203  and  _204
REMARK   78  A    between atoms: _207  and  _209
REMARK   79  A    between atoms: _209  and  _210
REMARK   80  A    between atoms: _209  and  _212
REMARK   81  A    between atoms: _212  and  _213
REMARK   82  A    between atoms: _218  and  _220
REMARK   83  A    between atoms: _220  and  _221
REMARK   84  A    between atoms: _220  and  _223
REMARK   85  A    between atoms: _223  and  _224
REMARK   86  A    between atoms: _227  and  _229
REMARK   87  A    between atoms: _229  and  _230
REMARK   88  A    between atoms: _229  and  _232
REMARK   89  A    between atoms: _235  and  _237
REMARK   90  A    between atoms: _237  and  _238
REMARK   91  A    between atoms: _237  and  _240
REMARK   92  A    between atoms: _240  and  _241
REMARK   93  A    between atoms: _251  and  _253
REMARK   94  A    between atoms: _253  and  _254
REMARK   95  A    between atoms: _253  and  _256
REMARK   96  A    between atoms: _256  and  _257
REMARK   97  A    between atoms: _260  and  _262
REMARK   98  A    between atoms: _262  and  _263
REMARK   99  A    between atoms: _265  and  _267
REMARK  100  A    between atoms: _267  and  _268
REMARK  101  A    between atoms: _267  and  _270
REMARK  102  A    between atoms: _270  and  _271
REMARK  103  A    between atoms: _276  and  _278
REMARK  104  A    between atoms: _278  and  _279
REMARK  105  A    between atoms: _281  and  _283
REMARK  106  A    between atoms: _283  and  _284
REMARK  107  A    between atoms: _283  and  _286
REMARK  108  A    between atoms: _286  and  _287
REMARK                            x       y       z     vdW  Elec       q    Type
REMARK                         _______ _______ _______ _____ _____    ______ ____
ROOT
ATOM      1  O   HOH     1     -14.499   0.030  36.038  0.00  0.00    +0.000 OA
ENDROOT
TORSDOF 0
REMARK  Name = ../refined-set-2016/4csd/4csd_pocket.pdb
REMARK  108 active torsions:
REMARK  status: ('A' for Active; 'I' for Inactive)
REMARK    1  A    between atoms: _1  and  _3
REMARK    2  A    between atoms: _3  and  _4
REMARK    3  A    between atoms: _3  and  _6
REMARK    4  A    between atoms: _6  and  _7
REMARK    5  A    between atoms: _10  and  _12
REMARK    6  A    between atoms: _12  and  _13
REMARK    7  A    between atoms: _12  and  _15
REMARK    8  A    between atoms: _15  and  _16
REMARK    9  A    between atoms: _26  and  _28
REMARK   10  A    between atoms: _28  and  _29
REMARK   11  A    between atoms: _28  and  _31
REMARK   12  A    between atoms: _31  and  _32
REMARK   13  A    between atoms: _34  and  _36
REMARK   14  A    between atoms: _36  and  _37
REMARK   15  A    between atoms: _36  and  _39
REMARK   16  A    between atoms: _39  and  _40
REMARK   17  A    between atoms: _43  and  _45
REMARK   18  A    between atoms: _45  and  _46
REMARK   19  A    between atoms: _45  and  _48
REMARK   20  A    between atoms: _48  and  _49
REMARK   21  A    between atoms: _49  and  _50
REMARK   22  A    between atoms: _50  and  _51
REMARK   23  A    between atoms: _60  and  _62
REMARK   24  A    between atoms: _62  and  _63
REMARK   25  A    between atoms: _62  and  _65
REMARK   26  A    between atoms: _68  and  _70
REMARK   27  A    between atoms: _70  and  _71
REMARK   28  A    between atoms: _70  and  _73
REMARK   29  A    between atoms: _73  and  _74
REMARK   30  A    between atoms: _79  and  _80
REMARK   31  A    between atoms: _82  and  _84
REMARK   32  A    between atoms: _84  and  _85
REMARK   33  A    between atoms: _84  and  _87
REMARK   34  A    between atoms: _87  and  _88
REMARK   35  A    between atoms: _88  and  _89
REMARK   36  A    between atoms: _92  and  _94
REMARK   37  A    between atoms: _94  and  _95
REMARK   38  A    between atoms: _94  and  _97
REMARK   39  A    between atoms: _97  and  _98
REMARK   40  A    between atoms: _98  and  _99
REMARK   41  A    between atoms: _99  and  _100
REMARK   42  A    between atoms: _109  and  _111
REMARK   43  A    between atoms: _111  and  _112
REMARK   44  A    between atoms: _111  and  _114
REMARK   45  A    between atoms: _116  and  _118
REMARK   46  A    between atoms: _118  and  _119
REMARK   47  A    between atoms: _118  and  _121
REMARK   48  A    between atoms: _121  and  _122
REMARK   49  A    between atoms: _132  and  _134
REMARK   50  A    between atoms: _134  and  _135
REMARK   51  A    between atoms: _134  and  _137
REMARK   52  A    between atoms: _137  and  _138
REMARK   53  A    between atoms: _141  and  _143
REMARK   54  A    between atoms: _143  and  _144
REMARK   55  A    between atoms: _143  and  _146
REMARK   56  A    between atoms: _146  and  _147
REMARK   57  A    between atoms: _152  and  _153
REMARK   58  A    between atoms: _155  and  _157
REMARK   59  A    between atoms: _157  and  _158
REMARK   60  A    between atoms: _157  and  _160
REMARK   61  A    between atoms: _160  and  _161
REMARK   62  A    between atoms: _164  and  _166
REMARK   63  A    between atoms: _166  and  _167
REMARK   64  A    between atoms: _169  and  _171
REMARK   65  A    between atoms: _171  and  _172
REMARK   66  A    between atoms: _175  and  _177
REMARK   67  A    between atoms: _177  and  _178
REMARK   68  A    between atoms: _177  and  _180
REMARK   69  A    between atoms: _180  and  _181
REMARK   70  A    between atoms: _187  and  _189
REMARK   71  A    between atoms: _189  and  _190
REMARK   72  A    between atoms: _189  and  _192
REMARK   73  A    between atoms: _192  and  _193
REMARK   74  A    between atoms: _198  and  _200
REMARK   75  A    between atoms: _200  and  _201
REMARK   76  A    between atoms: _200  and  _203
REMARK   77  A    between atoms: _203  and  _204
REMARK   78  A    between atoms: _207  and  _209
REMARK   79  A    between atoms: _209  and  _210
REMARK   80  A    between atoms: _209  and  _212
REMARK   81  A    between atoms: _212  and  _213
REMARK   82  A    between atoms: _218  and  _220
REMARK   83  A    between atoms: _220  and  _221
REMARK   84  A    between atoms: _220  and  _223
REMARK   85  A    between atoms: _223  and  _224
REMARK   86  A    between atoms: _227  and  _229
REMARK   87  A    between atoms: _229  and  _230
REMARK   88  A    between atoms: _229  and  _232
REMARK   89  A    between atoms: _235  and  _237
REMARK   90  A    between atoms: _237  and  _238
REMARK   91  A    between atoms: _237  and  _240
REMARK   92  A    between atoms: _240  and  _241
REMARK   93  A    between atoms: _251  and  _253
REMARK   94  A    between atoms: _253  and  _254
REMARK   95  A    between atoms: _253  and  _256
REMARK   96  A    between atoms: _256  and  _257
REMARK   97  A    between atoms: _260  and  _262
REMARK   98  A    between atoms: _262  and  _263
REMARK   99  A    between atoms: _265  and  _267
REMARK  100  A    between atoms: _267  and  _268
REMARK  101  A    between atoms: _267  and  _270
REMARK  102  A    between atoms: _270  and  _271
REMARK  103  A    between atoms: _276  and  _278
REMARK  104  A    between atoms: _278  and  _279
REMARK  105  A    between atoms: _281  and  _283
REMARK  106  A    between atoms: _283  and  _284
REMARK  107  A    between atoms: _283  and  _286
REMARK  108  A    between atoms: _286  and  _287
REMARK                            x       y       z     vdW  Elec       q    Type
REMARK                         _______ _______ _______ _____ _____    ______ ____
ROOT
ATOM      1  O   HOH     1      -4.035  -0.091  44.639  0.00  0.00    +0.000 OA
ENDROOT
TORSDOF 0
REMARK  Name = ../refined-set-2016/4csd/4csd_pocket.pdb
REMARK  108 active torsions:
REMARK  status: ('A' for Active; 'I' for Inactive)
REMARK    1  A    between atoms: _1  and  _3
REMARK    2  A    between atoms: _3  and  _4
REMARK    3  A    between atoms: _3  and  _6
REMARK    4  A    between atoms: _6  and  _7
REMARK    5  A    between atoms: _10  and  _12
REMARK    6  A    between atoms: _12  and  _13
REMARK    7  A    between atoms: _12  and  _15
REMARK    8  A    between atoms: _15  and  _16
REMARK    9  A    between atoms: _26  and  _28
REMARK   10  A    between atoms: _28  and  _29
REMARK   11  A    between atoms: _28  and  _31
REMARK   12  A    between atoms: _31  and  _32
REMARK   13  A    between atoms: _34  and  _36
REMARK   14  A    between atoms: _36  and  _37
REMARK   15  A    between atoms: _36  and  _39
REMARK   16  A    between atoms: _39  and  _40
REMARK   17  A    between atoms: _43  and  _45
REMARK   18  A    between atoms: _45  and  _46
REMARK   19  A    between atoms: _45  and  _48
REMARK   20  A    between atoms: _48  and  _49
REMARK   21  A    between atoms: _49  and  _50
REMARK   22  A    between atoms: _50  and  _51
REMARK   23  A    between atoms: _60  and  _62
REMARK   24  A    between atoms: _62  and  _63
REMARK   25  A    between atoms: _62  and  _65
REMARK   26  A    between atoms: _68  and  _70
REMARK   27  A    between atoms: _70  and  _71
REMARK   28  A    between atoms: _70  and  _73
REMARK   29  A    between atoms: _73  and  _74
REMARK   30  A    between atoms: _79  and  _80
REMARK   31  A    between atoms: _82  and  _84
REMARK   32  A    between atoms: _84  and  _85
REMARK   33  A    between atoms: _84  and  _87
REMARK   34  A    between atoms: _87  and  _88
REMARK   35  A    between atoms: _88  and  _89
REMARK   36  A    between atoms: _92  and  _94
REMARK   37  A    between atoms: _94  and  _95
REMARK   38  A    between atoms: _94  and  _97
REMARK   39  A    between atoms: _97  and  _98
REMARK   40  A    between atoms: _98  and  _99
REMARK   41  A    between atoms: _99  and  _100
REMARK   42  A    between atoms: _109  and  _111
REMARK   43  A    between atoms: _111  and  _112
REMARK   44  A    between atoms: _111  and  _114
REMARK   45  A    between atoms: _116  and  _118
REMARK   46  A    between atoms: _118  and  _119
REMARK   47  A    between atoms: _118  and  _121
REMARK   48  A    between atoms: _121  and  _122
REMARK   49  A    between atoms: _132  and  _134
REMARK   50  A    between atoms: _134  and  _135
REMARK   51  A    between atoms: _134  and  _137
REMARK   52  A    between atoms: _137  and  _138
REMARK   53  A    between atoms: _141  and  _143
REMARK   54  A    between atoms: _143  and  _144
REMARK   55  A    between atoms: _143  and  _146
REMARK   56  A    between atoms: _146  and  _147
REMARK   57  A    between atoms: _152  and  _153
REMARK   58  A    between atoms: _155  and  _157
REMARK   59  A    between atoms: _157  and  _158
REMARK   60  A    between atoms: _157  and  _160
REMARK   61  A    between atoms: _160  and  _161
REMARK   62  A    between atoms: _164  and  _166
REMARK   63  A    between atoms: _166  and  _167
REMARK   64  A    between atoms: _169  and  _171
REMARK   65  A    between atoms: _171  and  _172
REMARK   66  A    between atoms: _175  and  _177
REMARK   67  A    between atoms: _177  and  _178
REMARK   68  A    between atoms: _177  and  _180
REMARK   69  A    between atoms: _180  and  _181
REMARK   70  A    between atoms: _187  and  _189
REMARK   71  A    between atoms: _189  and  _190
REMARK   72  A    between atoms: _189  and  _192
REMARK   73  A    between atoms: _192  and  _193
REMARK   74  A    between atoms: _198  and  _200
REMARK   75  A    between atoms: _200  and  _201
REMARK   76  A    between atoms: _200  and  _203
REMARK   77  A    between atoms: _203  and  _204
REMARK   78  A    between atoms: _207  and  _209
REMARK   79  A    between atoms: _209  and  _210
REMARK   80  A    between atoms: _209  and  _212
REMARK   81  A    between atoms: _212  and  _213
REMARK   82  A    between atoms: _218  and  _220
REMARK   83  A    between atoms: _220  and  _221
REMARK   84  A    between atoms: _220  and  _223
REMARK   85  A    between atoms: _223  and  _224
REMARK   86  A    between atoms: _227  and  _229
REMARK   87  A    between atoms: _229  and  _230
REMARK   88  A    between atoms: _229  and  _232
REMARK   89  A    between atoms: _235  and  _237
REMARK   90  A    between atoms: _237  and  _238
REMARK   91  A    between atoms: _237  and  _240
REMARK   92  A    between atoms: _240  and  _241
REMARK   93  A    between atoms: _251  and  _253
REMARK   94  A    between atoms: _253  and  _254
REMARK   95  A    between atoms: _253  and  _256
REMARK   96  A    between atoms: _256  and  _257
REMARK   97  A    between atoms: _260  and  _262
REMARK   98  A    between atoms: _262  and  _263
REMARK   99  A    between atoms: _265  and  _267
REMARK  100  A    between atoms: _267  and  _268
REMARK  101  A    between atoms: _267  and  _270
REMARK  102  A    between atoms: _270  and  _271
REMARK  103  A    between atoms: _276  and  _278
REMARK  104  A    between atoms: _278  and  _279
REMARK  105  A    between atoms: _281  and  _283
REMARK  106  A    between atoms: _283  and  _284
REMARK  107  A    between atoms: _283  and  _286
REMARK  108  A    between atoms: _286  and  _287
REMARK                            x       y       z     vdW  Elec       q    Type
REMARK                         _______ _______ _______ _____ _____    ______ ____
ROOT
ATOM      1  O   HOH     1      -4.490  -6.438  48.189  0.00  0.00    +0.000 OA
ENDROOT
TORSDOF 0
REMARK  Name = ../refined-set-2016/4csd/4csd_pocket.pdb
REMARK  108 active torsions:
REMARK  status: ('A' for Active; 'I' for Inactive)
REMARK    1  A    between atoms: _1  and  _3
REMARK    2  A    between atoms: _3  and  _4
REMARK    3  A    between atoms: _3  and  _6
REMARK    4  A    between atoms: _6  and  _7
REMARK    5  A    between atoms: _10  and  _12
REMARK    6  A    between atoms: _12  and  _13
REMARK    7  A    between atoms: _12  and  _15
REMARK    8  A    between atoms: _15  and  _16
REMARK    9  A    between atoms: _26  and  _28
REMARK   10  A    between atoms: _28  and  _29
REMARK   11  A    between atoms: _28  and  _31
REMARK   12  A    between atoms: _31  and  _32
REMARK   13  A    between atoms: _34  and  _36
REMARK   14  A    between atoms: _36  and  _37
REMARK   15  A    between atoms: _36  and  _39
REMARK   16  A    between atoms: _39  and  _40
REMARK   17  A    between atoms: _43  and  _45
REMARK   18  A    between atoms: _45  and  _46
REMARK   19  A    between atoms: _45  and  _48
REMARK   20  A    between atoms: _48  and  _49
REMARK   21  A    between atoms: _49  and  _50
REMARK   22  A    between atoms: _50  and  _51
REMARK   23  A    between atoms: _60  and  _62
REMARK   24  A    between atoms: _62  and  _63
REMARK   25  A    between atoms: _62  and  _65
REMARK   26  A    between atoms: _68  and  _70
REMARK   27  A    between atoms: _70  and  _71
REMARK   28  A    between atoms: _70  and  _73
REMARK   29  A    between atoms: _73  and  _74
REMARK   30  A    between atoms: _79  and  _80
REMARK   31  A    between atoms: _82  and  _84
REMARK   32  A    between atoms: _84  and  _85
REMARK   33  A    between atoms: _84  and  _87
REMARK   34  A    between atoms: _87  and  _88
REMARK   35  A    between atoms: _88  and  _89
REMARK   36  A    between atoms: _92  and  _94
REMARK   37  A    between atoms: _94  and  _95
REMARK   38  A    between atoms: _94  and  _97
REMARK   39  A    between atoms: _97  and  _98
REMARK   40  A    between atoms: _98  and  _99
REMARK   41  A    between atoms: _99  and  _100
REMARK   42  A    between atoms: _109  and  _111
REMARK   43  A    between atoms: _111  and  _112
REMARK   44  A    between atoms: _111  and  _114
REMARK   45  A    between atoms: _116  and  _118
REMARK   46  A    between atoms: _118  and  _119
REMARK   47  A    between atoms: _118  and  _121
REMARK   48  A    between atoms: _121  and  _122
REMARK   49  A    between atoms: _132  and  _134
REMARK   50  A    between atoms: _134  and  _135
REMARK   51  A    between atoms: _134  and  _137
REMARK   52  A    between atoms: _137  and  _138
REMARK   53  A    between atoms: _141  and  _143
REMARK   54  A    between atoms: _143  and  _144
REMARK   55  A    between atoms: _143  and  _146
REMARK   56  A    between atoms: _146  and  _147
REMARK   57  A    between atoms: _152  and  _153
REMARK   58  A    between atoms: _155  and  _157
REMARK   59  A    between atoms: _157  and  _158
REMARK   60  A    between atoms: _157  and  _160
REMARK   61  A    between atoms: _160  and  _161
REMARK   62  A    between atoms: _164  and  _166
REMARK   63  A    between atoms: _166  and  _167
REMARK   64  A    between atoms: _169  and  _171
REMARK   65  A    between atoms: _171  and  _172
REMARK   66  A    between atoms: _175  and  _177
REMARK   67  A    between atoms: _177  and  _178
REMARK   68  A    between atoms: _177  and  _180
REMARK   69  A    between atoms: _180  and  _181
REMARK   70  A    between atoms: _187  and  _189
REMARK   71  A    between atoms: _189  and  _190
REMARK   72  A    between atoms: _189  and  _192
REMARK   73  A    between atoms: _192  and  _193
REMARK   74  A    between atoms: _198  and  _200
REMARK   75  A    between atoms: _200  and  _201
REMARK   76  A    between atoms: _200  and  _203
REMARK   77  A    between atoms: _203  and  _204
REMARK   78  A    between atoms: _207  and  _209
REMARK   79  A    between atoms: _209  and  _210
REMARK   80  A    between atoms: _209  and  _212
REMARK   81  A    between atoms: _212  and  _213
REMARK   82  A    between atoms: _218  and  _220
REMARK   83  A    between atoms: _220  and  _221
REMARK   84  A    between atoms: _220  and  _223
REMARK   85  A    between atoms: _223  and  _224
REMARK   86  A    between atoms: _227  and  _229
REMARK   87  A    between atoms: _229  and  _230
REMARK   88  A    between atoms: _229  and  _232
REMARK   89  A    between atoms: _235  and  _237
REMARK   90  A    between atoms: _237  and  _238
REMARK   91  A    between atoms: _237  and  _240
REMARK   92  A    between atoms: _240  and  _241
REMARK   93  A    between atoms: _251  and  _253
REMARK   94  A    between atoms: _253  and  _254
REMARK   95  A    between atoms: _253  and  _256
REMARK   96  A    between atoms: _256  and  _257
REMARK   97  A    between atoms: _260  and  _262
REMARK   98  A    between atoms: _262  and  _263
REMARK   99  A    between atoms: _265  and  _267
REMARK  100  A    between atoms: _267  and  _268
REMARK  101  A    between atoms: _267  and  _270
REMARK  102  A    between atoms: _270  and  _271
REMARK  103  A    between atoms: _276  and  _278
REMARK  104  A    between atoms: _278  and  _279
REMARK  105  A    between atoms: _281  and  _283
REMARK  106  A    between atoms: _283  and  _284
REMARK  107  A    between atoms: _283  and  _286
REMARK  108  A    between atoms: _286  and  _287
REMARK                            x       y       z     vdW  Elec       q    Type
REMARK                         _______ _______ _______ _____ _____    ______ ____
ROOT
ATOM      1  O   HOH     1     -18.085 -11.102  42.763  0.00  0.00    +0.000 OA
ENDROOT
TORSDOF 0
REMARK  Name = ../refined-set-2016/4csd/4csd_pocket.pdb
REMARK  108 active torsions:
REMARK  status: ('A' for Active; 'I' for Inactive)
REMARK    1  A    between atoms: _1  and  _3
REMARK    2  A    between atoms: _3  and  _4
REMARK    3  A    between atoms: _3  and  _6
REMARK    4  A    between atoms: _6  and  _7
REMARK    5  A    between atoms: _10  and  _12
REMARK    6  A    between atoms: _12  and  _13
REMARK    7  A    between atoms: _12  and  _15
REMARK    8  A    between atoms: _15  and  _16
REMARK    9  A    between atoms: _26  and  _28
REMARK   10  A    between atoms: _28  and  _29
REMARK   11  A    between atoms: _28  and  _31
REMARK   12  A    between atoms: _31  and  _32
REMARK   13  A    between atoms: _34  and  _36
REMARK   14  A    between atoms: _36  and  _37
REMARK   15  A    between atoms: _36  and  _39
REMARK   16  A    between atoms: _39  and  _40
REMARK   17  A    between atoms: _43  and  _45
REMARK   18  A    between atoms: _45  and  _46
REMARK   19  A    between atoms: _45  and  _48
REMARK   20  A    between atoms: _48  and  _49
REMARK   21  A    between atoms: _49  and  _50
REMARK   22  A    between atoms: _50  and  _51
REMARK   23  A    between atoms: _60  and  _62
REMARK   24  A    between atoms: _62  and  _63
REMARK   25  A    between atoms: _62  and  _65
REMARK   26  A    between atoms: _68  and  _70
REMARK   27  A    between atoms: _70  and  _71
REMARK   28  A    between atoms: _70  and  _73
REMARK   29  A    between atoms: _73  and  _74
REMARK   30  A    between atoms: _79  and  _80
REMARK   31  A    between atoms: _82  and  _84
REMARK   32  A    between atoms: _84  and  _85
REMARK   33  A    between atoms: _84  and  _87
REMARK   34  A    between atoms: _87  and  _88
REMARK   35  A    between atoms: _88  and  _89
REMARK   36  A    between atoms: _92  and  _94
REMARK   37  A    between atoms: _94  and  _95
REMARK   38  A    between atoms: _94  and  _97
REMARK   39  A    between atoms: _97  and  _98
REMARK   40  A    between atoms: _98  and  _99
REMARK   41  A    between atoms: _99  and  _100
REMARK   42  A    between atoms: _109  and  _111
REMARK   43  A    between atoms: _111  and  _112
REMARK   44  A    between atoms: _111  and  _114
REMARK   45  A    between atoms: _116  and  _118
REMARK   46  A    between atoms: _118  and  _119
REMARK   47  A    between atoms: _118  and  _121
REMARK   48  A    between atoms: _121  and  _122
REMARK   49  A    between atoms: _132  and  _134
REMARK   50  A    between atoms: _134  and  _135
REMARK   51  A    between atoms: _134  and  _137
REMARK   52  A    between atoms: _137  and  _138
REMARK   53  A    between atoms: _141  and  _143
REMARK   54  A    between atoms: _143  and  _144
REMARK   55  A    between atoms: _143  and  _146
REMARK   56  A    between atoms: _146  and  _147
REMARK   57  A    between atoms: _152  and  _153
REMARK   58  A    between atoms: _155  and  _157
REMARK   59  A    between atoms: _157  and  _158
REMARK   60  A    between atoms: _157  and  _160
REMARK   61  A    between atoms: _160  and  _161
REMARK   62  A    between atoms: _164  and  _166
REMARK   63  A    between atoms: _166  and  _167
REMARK   64  A    between atoms: _169  and  _171
REMARK   65  A    between atoms: _171  and  _172
REMARK   66  A    between atoms: _175  and  _177
REMARK   67  A    between atoms: _177  and  _178
REMARK   68  A    between atoms: _177  and  _180
REMARK   69  A    between atoms: _180  and  _181
REMARK   70  A    between atoms: _187  and  _189
REMARK   71  A    between atoms: _189  and  _190
REMARK   72  A    between atoms: _189  and  _192
REMARK   73  A    between atoms: _192  and  _193
REMARK   74  A    between atoms: _198  and  _200
REMARK   75  A    between atoms: _200  and  _201
REMARK   76  A    between atoms: _200  and  _203
REMARK   77  A    between atoms: _203  and  _204
REMARK   78  A    between atoms: _207  and  _209
REMARK   79  A    between atoms: _209  and  _210
REMARK   80  A    between atoms: _209  and  _212
REMARK   81  A    between atoms: _212  and  _213
REMARK   82  A    between atoms: _218  and  _220
REMARK   83  A    between atoms: _220  and  _221
REMARK   84  A    between atoms: _220  and  _223
REMARK   85  A    between atoms: _223  and  _224
REMARK   86  A    between atoms: _227  and  _229
REMARK   87  A    between atoms: _229  and  _230
REMARK   88  A    between atoms: _229  and  _232
REMARK   89  A    between atoms: _235  and  _237
REMARK   90  A    between atoms: _237  and  _238
REMARK   91  A    between atoms: _237  and  _240
REMARK   92  A    between atoms: _240  and  _241
REMARK   93  A    between atoms: _251  and  _253
REMARK   94  A    between atoms: _253  and  _254
REMARK   95  A    between atoms: _253  and  _256
REMARK   96  A    between atoms: _256  and  _257
REMARK   97  A    between atoms: _260  and  _262
REMARK   98  A    between atoms: _262  and  _263
REMARK   99  A    between atoms: _265  and  _267
REMARK  100  A    between atoms: _267  and  _268
REMARK  101  A    between atoms: _267  and  _270
REMARK  102  A    between atoms: _270  and  _271
REMARK  103  A    between atoms: _276  and  _278
REMARK  104  A    between atoms: _278  and  _279
REMARK  105  A    between atoms: _281  and  _283
REMARK  106  A    between atoms: _283  and  _284
REMARK  107  A    between atoms: _283  and  _286
REMARK  108  A    between atoms: _286  and  _287
REMARK                            x       y       z     vdW  Elec       q    Type
REMARK                         _______ _______ _______ _____ _____    ______ ____
ROOT
ATOM      1  O   HOH     1     -16.771  -8.046  41.908  0.00  0.00    +0.000 OA
ENDROOT
TORSDOF 0
REMARK  Name = ../refined-set-2016/4csd/4csd_pocket.pdb
REMARK  108 active torsions:
REMARK  status: ('A' for Active; 'I' for Inactive)
REMARK    1  A    between atoms: _1  and  _3
REMARK    2  A    between atoms: _3  and  _4
REMARK    3  A    between atoms: _3  and  _6
REMARK    4  A    between atoms: _6  and  _7
REMARK    5  A    between atoms: _10  and  _12
REMARK    6  A    between atoms: _12  and  _13
REMARK    7  A    between atoms: _12  and  _15
REMARK    8  A    between atoms: _15  and  _16
REMARK    9  A    between atoms: _26  and  _28
REMARK   10  A    between atoms: _28  and  _29
REMARK   11  A    between atoms: _28  and  _31
REMARK   12  A    between atoms: _31  and  _32
REMARK   13  A    between atoms: _34  and  _36
REMARK   14  A    between atoms: _36  and  _37
REMARK   15  A    between atoms: _36  and  _39
REMARK   16  A    between atoms: _39  and  _40
REMARK   17  A    between atoms: _43  and  _45
REMARK   18  A    between atoms: _45  and  _46
REMARK   19  A    between atoms: _45  and  _48
REMARK   20  A    between atoms: _48  and  _49
REMARK   21  A    between atoms: _49  and  _50
REMARK   22  A    between atoms: _50  and  _51
REMARK   23  A    between atoms: _60  and  _62
REMARK   24  A    between atoms: _62  and  _63
REMARK   25  A    between atoms: _62  and  _65
REMARK   26  A    between atoms: _68  and  _70
REMARK   27  A    between atoms: _70  and  _71
REMARK   28  A    between atoms: _70  and  _73
REMARK   29  A    between atoms: _73  and  _74
REMARK   30  A    between atoms: _79  and  _80
REMARK   31  A    between atoms: _82  and  _84
REMARK   32  A    between atoms: _84  and  _85
REMARK   33  A    between atoms: _84  and  _87
REMARK   34  A    between atoms: _87  and  _88
REMARK   35  A    between atoms: _88  and  _89
REMARK   36  A    between atoms: _92  and  _94
REMARK   37  A    between atoms: _94  and  _95
REMARK   38  A    between atoms: _94  and  _97
REMARK   39  A    between atoms: _97  and  _98
REMARK   40  A    between atoms: _98  and  _99
REMARK   41  A    between atoms: _99  and  _100
REMARK   42  A    between atoms: _109  and  _111
REMARK   43  A    between atoms: _111  and  _112
REMARK   44  A    between atoms: _111  and  _114
REMARK   45  A    between atoms: _116  and  _118
REMARK   46  A    between atoms: _118  and  _119
REMARK   47  A    between atoms: _118  and  _121
REMARK   48  A    between atoms: _121  and  _122
REMARK   49  A    between atoms: _132  and  _134
REMARK   50  A    between atoms: _134  and  _135
REMARK   51  A    between atoms: _134  and  _137
REMARK   52  A    between atoms: _137  and  _138
REMARK   53  A    between atoms: _141  and  _143
REMARK   54  A    between atoms: _143  and  _144
REMARK   55  A    between atoms: _143  and  _146
REMARK   56  A    between atoms: _146  and  _147
REMARK   57  A    between atoms: _152  and  _153
REMARK   58  A    between atoms: _155  and  _157
REMARK   59  A    between atoms: _157  and  _158
REMARK   60  A    between atoms: _157  and  _160
REMARK   61  A    between atoms: _160  and  _161
REMARK   62  A    between atoms: _164  and  _166
REMARK   63  A    between atoms: _166  and  _167
REMARK   64  A    between atoms: _169  and  _171
REMARK   65  A    between atoms: _171  and  _172
REMARK   66  A    between atoms: _175  and  _177
REMARK   67  A    between atoms: _177  and  _178
REMARK   68  A    between atoms: _177  and  _180
REMARK   69  A    between atoms: _180  and  _181
REMARK   70  A    between atoms: _187  and  _189
REMARK   71  A    between atoms: _189  and  _190
REMARK   72  A    between atoms: _189  and  _192
REMARK   73  A    between atoms: _192  and  _193
REMARK   74  A    between atoms: _198  and  _200
REMARK   75  A    between atoms: _200  and  _201
REMARK   76  A    between atoms: _200  and  _203
REMARK   77  A    between atoms: _203  and  _204
REMARK   78  A    between atoms: _207  and  _209
REMARK   79  A    between atoms: _209  and  _210
REMARK   80  A    between atoms: _209  and  _212
REMARK   81  A    between atoms: _212  and  _213
REMARK   82  A    between atoms: _218  and  _220
REMARK   83  A    between atoms: _220  and  _221
REMARK   84  A    between atoms: _220  and  _223
REMARK   85  A    between atoms: _223  and  _224
REMARK   86  A    between atoms: _227  and  _229
REMARK   87  A    between atoms: _229  and  _230
REMARK   88  A    between atoms: _229  and  _232
REMARK   89  A    between atoms: _235  and  _237
REMARK   90  A    between atoms: _237  and  _238
REMARK   91  A    between atoms: _237  and  _240
REMARK   92  A    between atoms: _240  and  _241
REMARK   93  A    between atoms: _251  and  _253
REMARK   94  A    between atoms: _253  and  _254
REMARK   95  A    between atoms: _253  and  _256
REMARK   96  A    between atoms: _256  and  _257
REMARK   97  A    between atoms: _260  and  _262
REMARK   98  A    between atoms: _262  and  _263
REMARK   99  A    between atoms: _265  and  _267
REMARK  100  A    between atoms: _267  and  _268
REMARK  101  A    between atoms: _267  and  _270
REMARK  102  A    between atoms: _270  and  _271
REMARK  103  A    between atoms: _276  and  _278
REMARK  104  A    between atoms: _278  and  _279
REMARK  105  A    between atoms: _281  and  _283
REMARK  106  A    between atoms: _283  and  _284
REMARK  107  A    between atoms: _283  and  _286
REMARK  108  A    between atoms: _286  and  _287
REMARK                            x       y       z     vdW  Elec       q    Type
REMARK                         _______ _______ _______ _____ _____    ______ ____
ROOT
ATOM      1  O   HOH     1     -16.550  -4.144  43.935  0.00  0.00    +0.000 OA
ENDROOT
TORSDOF 0
REMARK  Name = ../refined-set-2016/4csd/4csd_pocket.pdb
REMARK  108 active torsions:
REMARK  status: ('A' for Active; 'I' for Inactive)
REMARK    1  A    between atoms: _1  and  _3
REMARK    2  A    between atoms: _3  and  _4
REMARK    3  A    between atoms: _3  and  _6
REMARK    4  A    between atoms: _6  and  _7
REMARK    5  A    between atoms: _10  and  _12
REMARK    6  A    between atoms: _12  and  _13
REMARK    7  A    between atoms: _12  and  _15
REMARK    8  A    between atoms: _15  and  _16
REMARK    9  A    between atoms: _26  and  _28
REMARK   10  A    between atoms: _28  and  _29
REMARK   11  A    between atoms: _28  and  _31
REMARK   12  A    between atoms: _31  and  _32
REMARK   13  A    between atoms: _34  and  _36
REMARK   14  A    between atoms: _36  and  _37
REMARK   15  A    between atoms: _36  and  _39
REMARK   16  A    between atoms: _39  and  _40
REMARK   17  A    between atoms: _43  and  _45
REMARK   18  A    between atoms: _45  and  _46
REMARK   19  A    between atoms: _45  and  _48
REMARK   20  A    between atoms: _48  and  _49
REMARK   21  A    between atoms: _49  and  _50
REMARK   22  A    between atoms: _50  and  _51
REMARK   23  A    between atoms: _60  and  _62
REMARK   24  A    between atoms: _62  and  _63
REMARK   25  A    between atoms: _62  and  _65
REMARK   26  A    between atoms: _68  and  _70
REMARK   27  A    between atoms: _70  and  _71
REMARK   28  A    between atoms: _70  and  _73
REMARK   29  A    between atoms: _73  and  _74
REMARK   30  A    between atoms: _79  and  _80
REMARK   31  A    between atoms: _82  and  _84
REMARK   32  A    between atoms: _84  and  _85
REMARK   33  A    between atoms: _84  and  _87
REMARK   34  A    between atoms: _87  and  _88
REMARK   35  A    between atoms: _88  and  _89
REMARK   36  A    between atoms: _92  and  _94
REMARK   37  A    between atoms: _94  and  _95
REMARK   38  A    between atoms: _94  and  _97
REMARK   39  A    between atoms: _97  and  _98
REMARK   40  A    between atoms: _98  and  _99
REMARK   41  A    between atoms: _99  and  _100
REMARK   42  A    between atoms: _109  and  _111
REMARK   43  A    between atoms: _111  and  _112
REMARK   44  A    between atoms: _111  and  _114
REMARK   45  A    between atoms: _116  and  _118
REMARK   46  A    between atoms: _118  and  _119
REMARK   47  A    between atoms: _118  and  _121
REMARK   48  A    between atoms: _121  and  _122
REMARK   49  A    between atoms: _132  and  _134
REMARK   50  A    between atoms: _134  and  _135
REMARK   51  A    between atoms: _134  and  _137
REMARK   52  A    between atoms: _137  and  _138
REMARK   53  A    between atoms: _141  and  _143
REMARK   54  A    between atoms: _143  and  _144
REMARK   55  A    between atoms: _143  and  _146
REMARK   56  A    between atoms: _146  and  _147
REMARK   57  A    between atoms: _152  and  _153
REMARK   58  A    between atoms: _155  and  _157
REMARK   59  A    between atoms: _157  and  _158
REMARK   60  A    between atoms: _157  and  _160
REMARK   61  A    between atoms: _160  and  _161
REMARK   62  A    between atoms: _164  and  _166
REMARK   63  A    between atoms: _166  and  _167
REMARK   64  A    between atoms: _169  and  _171
REMARK   65  A    between atoms: _171  and  _172
REMARK   66  A    between atoms: _175  and  _177
REMARK   67  A    between atoms: _177  and  _178
REMARK   68  A    between atoms: _177  and  _180
REMARK   69  A    between atoms: _180  and  _181
REMARK   70  A    between atoms: _187  and  _189
REMARK   71  A    between atoms: _189  and  _190
REMARK   72  A    between atoms: _189  and  _192
REMARK   73  A    between atoms: _192  and  _193
REMARK   74  A    between atoms: _198  and  _200
REMARK   75  A    between atoms: _200  and  _201
REMARK   76  A    between atoms: _200  and  _203
REMARK   77  A    between atoms: _203  and  _204
REMARK   78  A    between atoms: _207  and  _209
REMARK   79  A    between atoms: _209  and  _210
REMARK   80  A    between atoms: _209  and  _212
REMARK   81  A    between atoms: _212  and  _213
REMARK   82  A    between atoms: _218  and  _220
REMARK   83  A    between atoms: _220  and  _221
REMARK   84  A    between atoms: _220  and  _223
REMARK   85  A    between atoms: _223  and  _224
REMARK   86  A    between atoms: _227  and  _229
REMARK   87  A    between atoms: _229  and  _230
REMARK   88  A    between atoms: _229  and  _232
REMARK   89  A    between atoms: _235  and  _237
REMARK   90  A    between atoms: _237  and  _238
REMARK   91  A    between atoms: _237  and  _240
REMARK   92  A    between atoms: _240  and  _241
REMARK   93  A    between atoms: _251  and  _253
REMARK   94  A    between atoms: _253  and  _254
REMARK   95  A    between atoms: _253  and  _256
REMARK   96  A    between atoms: _256  and  _257
REMARK   97  A    between atoms: _260  and  _262
REMARK   98  A    between atoms: _262  and  _263
REMARK   99  A    between atoms: _265  and  _267
REMARK  100  A    between atoms: _267  and  _268
REMARK  101  A    between atoms: _267  and  _270
REMARK  102  A    between atoms: _270  and  _271
REMARK  103  A    between atoms: _276  and  _278
REMARK  104  A    between atoms: _278  and  _279
REMARK  105  A    between atoms: _281  and  _283
REMARK  106  A    between atoms: _283  and  _284
REMARK  107  A    between atoms: _283  and  _286
REMARK  108  A    between atoms: _286  and  _287
REMARK                            x       y       z     vdW  Elec       q    Type
REMARK                         _______ _______ _______ _____ _____    ______ ____
ROOT
ATOM      1  O   HOH     1     -15.467  -2.619  46.165  0.00  0.00    +0.000 OA
ENDROOT
TORSDOF 0
REMARK  Name = ../refined-set-2016/4csd/4csd_pocket.pdb
REMARK  108 active torsions:
REMARK  status: ('A' for Active; 'I' for Inactive)
REMARK    1  A    between atoms: _1  and  _3
REMARK    2  A    between atoms: _3  and  _4
REMARK    3  A    between atoms: _3  and  _6
REMARK    4  A    between atoms: _6  and  _7
REMARK    5  A    between atoms: _10  and  _12
REMARK    6  A    between atoms: _12  and  _13
REMARK    7  A    between atoms: _12  and  _15
REMARK    8  A    between atoms: _15  and  _16
REMARK    9  A    between atoms: _26  and  _28
REMARK   10  A    between atoms: _28  and  _29
REMARK   11  A    between atoms: _28  and  _31
REMARK   12  A    between atoms: _31  and  _32
REMARK   13  A    between atoms: _34  and  _36
REMARK   14  A    between atoms: _36  and  _37
REMARK   15  A    between atoms: _36  and  _39
REMARK   16  A    between atoms: _39  and  _40
REMARK   17  A    between atoms: _43  and  _45
REMARK   18  A    between atoms: _45  and  _46
REMARK   19  A    between atoms: _45  and  _48
REMARK   20  A    between atoms: _48  and  _49
REMARK   21  A    between atoms: _49  and  _50
REMARK   22  A    between atoms: _50  and  _51
REMARK   23  A    between atoms: _60  and  _62
REMARK   24  A    between atoms: _62  and  _63
REMARK   25  A    between atoms: _62  and  _65
REMARK   26  A    between atoms: _68  and  _70
REMARK   27  A    between atoms: _70  and  _71
REMARK   28  A    between atoms: _70  and  _73
REMARK   29  A    between atoms: _73  and  _74
REMARK   30  A    between atoms: _79  and  _80
REMARK   31  A    between atoms: _82  and  _84
REMARK   32  A    between atoms: _84  and  _85
REMARK   33  A    between atoms: _84  and  _87
REMARK   34  A    between atoms: _87  and  _88
REMARK   35  A    between atoms: _88  and  _89
REMARK   36  A    between atoms: _92  and  _94
REMARK   37  A    between atoms: _94  and  _95
REMARK   38  A    between atoms: _94  and  _97
REMARK   39  A    between atoms: _97  and  _98
REMARK   40  A    between atoms: _98  and  _99
REMARK   41  A    between atoms: _99  and  _100
REMARK   42  A    between atoms: _109  and  _111
REMARK   43  A    between atoms: _111  and  _112
REMARK   44  A    between atoms: _111  and  _114
REMARK   45  A    between atoms: _116  and  _118
REMARK   46  A    between atoms: _118  and  _119
REMARK   47  A    between atoms: _118  and  _121
REMARK   48  A    between atoms: _121  and  _122
REMARK   49  A    between atoms: _132  and  _134
REMARK   50  A    between atoms: _134  and  _135
REMARK   51  A    between atoms: _134  and  _137
REMARK   52  A    between atoms: _137  and  _138
REMARK   53  A    between atoms: _141  and  _143
REMARK   54  A    between atoms: _143  and  _144
REMARK   55  A    between atoms: _143  and  _146
REMARK   56  A    between atoms: _146  and  _147
REMARK   57  A    between atoms: _152  and  _153
REMARK   58  A    between atoms: _155  and  _157
REMARK   59  A    between atoms: _157  and  _158
REMARK   60  A    between atoms: _157  and  _160
REMARK   61  A    between atoms: _160  and  _161
REMARK   62  A    between atoms: _164  and  _166
REMARK   63  A    between atoms: _166  and  _167
REMARK   64  A    between atoms: _169  and  _171
REMARK   65  A    between atoms: _171  and  _172
REMARK   66  A    between atoms: _175  and  _177
REMARK   67  A    between atoms: _177  and  _178
REMARK   68  A    between atoms: _177  and  _180
REMARK   69  A    between atoms: _180  and  _181
REMARK   70  A    between atoms: _187  and  _189
REMARK   71  A    between atoms: _189  and  _190
REMARK   72  A    between atoms: _189  and  _192
REMARK   73  A    between atoms: _192  and  _193
REMARK   74  A    between atoms: _198  and  _200
REMARK   75  A    between atoms: _200  and  _201
REMARK   76  A    between atoms: _200  and  _203
REMARK   77  A    between atoms: _203  and  _204
REMARK   78  A    between atoms: _207  and  _209
REMARK   79  A    between atoms: _209  and  _210
REMARK   80  A    between atoms: _209  and  _212
REMARK   81  A    between atoms: _212  and  _213
REMARK   82  A    between atoms: _218  and  _220
REMARK   83  A    between atoms: _220  and  _221
REMARK   84  A    between atoms: _220  and  _223
REMARK   85  A    between atoms: _223  and  _224
REMARK   86  A    between atoms: _227  and  _229
REMARK   87  A    between atoms: _229  and  _230
REMARK   88  A    between atoms: _229  and  _232
REMARK   89  A    between atoms: _235  and  _237
REMARK   90  A    between atoms: _237  and  _238
REMARK   91  A    between atoms: _237  and  _240
REMARK   92  A    between atoms: _240  and  _241
REMARK   93  A    between atoms: _251  and  _253
REMARK   94  A    between atoms: _253  and  _254
REMARK   95  A    between atoms: _253  and  _256
REMARK   96  A    between atoms: _256  and  _257
REMARK   97  A    between atoms: _260  and  _262
REMARK   98  A    between atoms: _262  and  _263
REMARK   99  A    between atoms: _265  and  _267
REMARK  100  A    between atoms: _267  and  _268
REMARK  101  A    between atoms: _267  and  _270
REMARK  102  A    between atoms: _270  and  _271
REMARK  103  A    between atoms: _276  and  _278
REMARK  104  A    between atoms: _278  and  _279
REMARK  105  A    between atoms: _281  and  _283
REMARK  106  A    between atoms: _283  and  _284
REMARK  107  A    between atoms: _283  and  _286
REMARK  108  A    between atoms: _286  and  _287
REMARK                            x       y       z     vdW  Elec       q    Type
REMARK                         _______ _______ _______ _____ _____    ______ ____
ROOT
ATOM      1  O   HOH     1     -12.839  -2.656  44.961  0.00  0.00    +0.000 OA
ENDROOT
TORSDOF 0
