REMARK  Name = ../refined-set-2016/4msn/4msn_pocket.pdb
REMARK  97 active torsions:
REMARK  status: ('A' for Active; 'I' for Inactive)
REMARK    1  A    between atoms: _1  and  _3
REMARK    2  A    between atoms: _3  and  _4
REMARK    3  A    between atoms: _3  and  _6
REMARK    4  A    between atoms: _6  and  _7
REMARK    5  A    between atoms: _12  and  _13
REMARK    6  A    between atoms: _15  and  _17
REMARK    7  A    between atoms: _17  and  _18
REMARK    8  A    between atoms: _17  and  _20
REMARK    9  A    between atoms: _20  and  _21
REMARK   10  A    between atoms: _26  and  _28
REMARK   11  A    between atoms: _28  and  _29
REMARK   12  A    between atoms: _28  and  _31
REMARK   13  A    between atoms: _31  and  _32
REMARK   14  A    between atoms: _37  and  _39
REMARK   15  A    between atoms: _39  and  _40
REMARK   16  A    between atoms: _39  and  _42
REMARK   17  A    between atoms: _42  and  _43
REMARK   18  A    between atoms: _46  and  _48
REMARK   19  A    between atoms: _48  and  _49
REMARK   20  A    between atoms: _48  and  _51
REMARK   21  A    between atoms: _51  and  _52
REMARK   22  A    between atoms: _55  and  _57
REMARK   23  A    between atoms: _57  and  _58
REMARK   24  A    between atoms: _57  and  _60
REMARK   25  A    between atoms: _60  and  _61
REMARK   26  A    between atoms: _64  and  _66
REMARK   27  A    between atoms: _66  and  _67
REMARK   28  A    between atoms: _66  and  _69
REMARK   29  A    between atoms: _71  and  _73
REMARK   30  A    between atoms: _73  and  _74
REMARK   31  A    between atoms: _73  and  _76
REMARK   32  A    between atoms: _76  and  _77
REMARK   33  A    between atoms: _79  and  _81
REMARK   34  A    between atoms: _81  and  _82
REMARK   35  A    between atoms: _81  and  _84
REMARK   36  A    between atoms: _87  and  _89
REMARK   37  A    between atoms: _89  and  _90
REMARK   38  A    between atoms: _89  and  _92
REMARK   39  A    between atoms: _92  and  _93
REMARK   40  A    between atoms: _96  and  _98
REMARK   41  A    between atoms: _98  and  _99
REMARK   42  A    between atoms: _98  and  _101
REMARK   43  A    between atoms: _101  and  _102
REMARK   44  A    between atoms: _105  and  _107
REMARK   45  A    between atoms: _107  and  _108
REMARK   46  A    between atoms: _111  and  _113
REMARK   47  A    between atoms: _113  and  _114
REMARK   48  A    between atoms: _113  and  _116
REMARK   49  A    between atoms: _116  and  _117
REMARK   50  A    between atoms: _120  and  _122
REMARK   51  A    between atoms: _122  and  _123
REMARK   52  A    between atoms: _122  and  _125
REMARK   53  A    between atoms: _125  and  _126
REMARK   54  A    between atoms: _131  and  _132
REMARK   55  A    between atoms: _134  and  _136
REMARK   56  A    between atoms: _136  and  _137
REMARK   57  A    between atoms: _136  and  _139
REMARK   58  A    between atoms: _139  and  _140
REMARK   59  A    between atoms: _146  and  _148
REMARK   60  A    between atoms: _148  and  _149
REMARK   61  A    between atoms: _148  and  _151
REMARK   62  A    between atoms: _151  and  _152
REMARK   63  A    between atoms: _152  and  _153
REMARK   64  A    between atoms: _155  and  _157
REMARK   65  A    between atoms: _157  and  _158
REMARK   66  A    between atoms: _157  and  _160
REMARK   67  A    between atoms: _163  and  _165
REMARK   68  A    between atoms: _165  and  _166
REMARK   69  A    between atoms: _168  and  _170
REMARK   70  A    between atoms: _170  and  _171
REMARK   71  A    between atoms: _170  and  _173
REMARK   72  A    between atoms: _173  and  _174
REMARK   73  A    between atoms: _174  and  _175
REMARK   74  A    between atoms: _180  and  _182
REMARK   75  A    between atoms: _182  and  _183
REMARK   76  A    between atoms: _182  and  _185
REMARK   77  A    between atoms: _185  and  _186
REMARK   78  A    between atoms: _189  and  _191
REMARK   79  A    between atoms: _191  and  _192
REMARK   80  A    between atoms: _194  and  _196
REMARK   81  A    between atoms: _196  and  _197
REMARK   82  A    between atoms: _196  and  _199
REMARK   83  A    between atoms: _199  and  _200
REMARK   84  A    between atoms: _206  and  _208
REMARK   85  A    between atoms: _208  and  _209
REMARK   86  A    between atoms: _208  and  _211
REMARK   87  A    between atoms: _211  and  _212
REMARK   88  A    between atoms: _217  and  _218
REMARK   89  A    between atoms: _220  and  _222
REMARK   90  A    between atoms: _222  and  _223
REMARK   91  A    between atoms: _222  and  _225
REMARK   92  A    between atoms: _228  and  _230
REMARK   93  A    between atoms: _230  and  _231
REMARK   94  A    between atoms: _234  and  _236
REMARK   95  A    between atoms: _236  and  _237
REMARK   96  A    between atoms: _236  and  _239
REMARK   97  A    between atoms: _239  and  _240
REMARK                            x       y       z     vdW  Elec       q    Type
REMARK                         _______ _______ _______ _____ _____    ______ ____
ROOT
ATOM      1  C   TYR A   1      13.810 -28.285 -29.796  0.00  0.00    +0.239 C 
ATOM      2  O   TYR A   1      13.502 -28.540 -28.632  0.00  0.00    -0.274 OA
ATOM      3  N   HIS A   2      14.272 -29.208 -30.634  0.00  0.00    -0.298 N 
ATOM      4  H   HIS A   2      14.627 -28.928 -31.571  0.00  0.00    +0.150 HD
ENDROOT
BRANCH   1   5
ATOM      5  CA  TYR A   1      13.645 -26.866 -30.322  0.00  0.00    +0.149 C 
BRANCH   5   6
ATOM      6  N   TYR A   1      14.852 -26.231 -30.854  0.00  0.00    -0.238 NA
ATOM      7  H   TYR A   1      15.354 -26.652 -31.662  0.00  0.00    +0.142 HD
ENDBRANCH   5   6
BRANCH   5   8
ATOM      8  CB  TYR A   1      12.466 -26.791 -31.296  0.00  0.00    +0.053 C 
BRANCH   8   9
ATOM      9  CG  TYR A   1      11.185 -27.347 -30.714  0.00  0.00    -0.020 A 
ATOM     10  CD2 TYR A   1      10.554 -26.719 -29.641  0.00  0.00    -0.001 A 
ATOM     11  CE2 TYR A   1       9.379 -27.232 -29.095  0.00  0.00    +0.036 A 
ATOM     12  CZ  TYR A   1       8.820 -28.386 -29.628  0.00  0.00    +0.134 A 
ATOM     13  CE1 TYR A   1       9.429 -29.031 -30.690  0.00  0.00    +0.036 A 
ATOM     14  CD1 TYR A   1      10.609 -28.514 -31.224  0.00  0.00    -0.001 A 
BRANCH  12  15
ATOM     15  OH  TYR A   1       7.651 -28.891 -29.096  0.00  0.00    -0.506 OA
ATOM     16  HH  TYR A   1       7.812 -29.809 -28.761  0.00  0.00    +0.292 HD
ENDBRANCH  12  15
ENDBRANCH   8   9
ENDBRANCH   5   8
ENDBRANCH   1   5
BRANCH   3  17
ATOM     17  CA  HIS A   2      14.282 -30.619 -30.239  0.00  0.00    +0.143 C 
BRANCH  17  18
ATOM     18  C   HIS A   2      15.468 -30.923 -29.319  0.00  0.00    +0.227 C 
ATOM     19  O   HIS A   2      16.340 -31.724 -29.643  0.00  0.00    -0.286 OA
ENDBRANCH  17  18
BRANCH  17  20
ATOM     20  CB  HIS A   2      14.233 -31.542 -31.457  0.00  0.00    +0.075 C 
BRANCH  20  21
ATOM     21  CG  HIS A   2      12.961 -31.451 -32.239  0.00  0.00    +0.082 A 
ATOM     22  CD2 HIS A   2      11.754 -32.045 -32.056  0.00  0.00    +0.115 A 
ATOM     23  NE2 HIS A   2      10.935 -31.621 -33.074  0.00  0.00    -0.221 NA
ATOM     24  CE1 HIS A   2      11.614 -30.798 -33.856  0.00  0.00    +0.199 A 
ATOM     25  ND1 HIS A   2      12.841 -30.682 -33.375  0.00  0.00    -0.227 NA
ENDBRANCH  20  21
ENDBRANCH  17  20
ENDBRANCH   3  17
TORSDOF 9
REMARK  Name = ../refined-set-2016/4msn/4msn_pocket.pdb
REMARK  97 active torsions:
REMARK  status: ('A' for Active; 'I' for Inactive)
REMARK    1  A    between atoms: _1  and  _3
REMARK    2  A    between atoms: _3  and  _4
REMARK    3  A    between atoms: _3  and  _6
REMARK    4  A    between atoms: _6  and  _7
REMARK    5  A    between atoms: _12  and  _13
REMARK    6  A    between atoms: _15  and  _17
REMARK    7  A    between atoms: _17  and  _18
REMARK    8  A    between atoms: _17  and  _20
REMARK    9  A    between atoms: _20  and  _21
REMARK   10  A    between atoms: _26  and  _28
REMARK   11  A    between atoms: _28  and  _29
REMARK   12  A    between atoms: _28  and  _31
REMARK   13  A    between atoms: _31  and  _32
REMARK   14  A    between atoms: _37  and  _39
REMARK   15  A    between atoms: _39  and  _40
REMARK   16  A    between atoms: _39  and  _42
REMARK   17  A    between atoms: _42  and  _43
REMARK   18  A    between atoms: _46  and  _48
REMARK   19  A    between atoms: _48  and  _49
REMARK   20  A    between atoms: _48  and  _51
REMARK   21  A    between atoms: _51  and  _52
REMARK   22  A    between atoms: _55  and  _57
REMARK   23  A    between atoms: _57  and  _58
REMARK   24  A    between atoms: _57  and  _60
REMARK   25  A    between atoms: _60  and  _61
REMARK   26  A    between atoms: _64  and  _66
REMARK   27  A    between atoms: _66  and  _67
REMARK   28  A    between atoms: _66  and  _69
REMARK   29  A    between atoms: _71  and  _73
REMARK   30  A    between atoms: _73  and  _74
REMARK   31  A    between atoms: _73  and  _76
REMARK   32  A    between atoms: _76  and  _77
REMARK   33  A    between atoms: _79  and  _81
REMARK   34  A    between atoms: _81  and  _82
REMARK   35  A    between atoms: _81  and  _84
REMARK   36  A    between atoms: _87  and  _89
REMARK   37  A    between atoms: _89  and  _90
REMARK   38  A    between atoms: _89  and  _92
REMARK   39  A    between atoms: _92  and  _93
REMARK   40  A    between atoms: _96  and  _98
REMARK   41  A    between atoms: _98  and  _99
REMARK   42  A    between atoms: _98  and  _101
REMARK   43  A    between atoms: _101  and  _102
REMARK   44  A    between atoms: _105  and  _107
REMARK   45  A    between atoms: _107  and  _108
REMARK   46  A    between atoms: _111  and  _113
REMARK   47  A    between atoms: _113  and  _114
REMARK   48  A    between atoms: _113  and  _116
REMARK   49  A    between atoms: _116  and  _117
REMARK   50  A    between atoms: _120  and  _122
REMARK   51  A    between atoms: _122  and  _123
REMARK   52  A    between atoms: _122  and  _125
REMARK   53  A    between atoms: _125  and  _126
REMARK   54  A    between atoms: _131  and  _132
REMARK   55  A    between atoms: _134  and  _136
REMARK   56  A    between atoms: _136  and  _137
REMARK   57  A    between atoms: _136  and  _139
REMARK   58  A    between atoms: _139  and  _140
REMARK   59  A    between atoms: _146  and  _148
REMARK   60  A    between atoms: _148  and  _149
REMARK   61  A    between atoms: _148  and  _151
REMARK   62  A    between atoms: _151  and  _152
REMARK   63  A    between atoms: _152  and  _153
REMARK   64  A    between atoms: _155  and  _157
REMARK   65  A    between atoms: _157  and  _158
REMARK   66  A    between atoms: _157  and  _160
REMARK   67  A    between atoms: _163  and  _165
REMARK   68  A    between atoms: _165  and  _166
REMARK   69  A    between atoms: _168  and  _170
REMARK   70  A    between atoms: _170  and  _171
REMARK   71  A    between atoms: _170  and  _173
REMARK   72  A    between atoms: _173  and  _174
REMARK   73  A    between atoms: _174  and  _175
REMARK   74  A    between atoms: _180  and  _182
REMARK   75  A    between atoms: _182  and  _183
REMARK   76  A    between atoms: _182  and  _185
REMARK   77  A    between atoms: _185  and  _186
REMARK   78  A    between atoms: _189  and  _191
REMARK   79  A    between atoms: _191  and  _192
REMARK   80  A    between atoms: _194  and  _196
REMARK   81  A    between atoms: _196  and  _197
REMARK   82  A    between atoms: _196  and  _199
REMARK   83  A    between atoms: _199  and  _200
REMARK   84  A    between atoms: _206  and  _208
REMARK   85  A    between atoms: _208  and  _209
REMARK   86  A    between atoms: _208  and  _211
REMARK   87  A    between atoms: _211  and  _212
REMARK   88  A    between atoms: _217  and  _218
REMARK   89  A    between atoms: _220  and  _222
REMARK   90  A    between atoms: _222  and  _223
REMARK   91  A    between atoms: _222  and  _225
REMARK   92  A    between atoms: _228  and  _230
REMARK   93  A    between atoms: _230  and  _231
REMARK   94  A    between atoms: _234  and  _236
REMARK   95  A    between atoms: _236  and  _237
REMARK   96  A    between atoms: _236  and  _239
REMARK   97  A    between atoms: _239  and  _240
REMARK                            x       y       z     vdW  Elec       q    Type
REMARK                         _______ _______ _______ _____ _____    ______ ____
ROOT
ATOM      1  CB  HIS A   1      11.853 -30.431 -26.365  0.00  0.00    +0.072 C 
ENDROOT
BRANCH   1   2
ATOM      2  CG  HIS A   1      10.858 -31.294 -27.067  0.00  0.00    +0.082 A 
ATOM      3  ND1 HIS A   1       9.561 -30.896 -27.300  0.00  0.00    -0.227 NA
ATOM      4  CE1 HIS A   1       8.921 -31.856 -27.944  0.00  0.00    +0.199 A 
ATOM      5  NE2 HIS A   1       9.759 -32.858 -28.145  0.00  0.00    -0.221 NA
ATOM      6  CD2 HIS A   1      10.977 -32.529 -27.607  0.00  0.00    +0.115 A 
ENDBRANCH   1   2
BRANCH   1   7
ATOM      7  CA  HIS A   1      11.638 -30.326 -24.858  0.00  0.00    +0.139 C 
BRANCH   7   8
ATOM      8  N   HIS A   1      12.757 -29.628 -24.255  0.00  0.00    -0.239 NA
ATOM      9  H   HIS A   1      13.564 -29.362 -24.855  0.00  0.00    +0.142 HD
ENDBRANCH   7   8
BRANCH   7  10
ATOM     10  C   HIS A   1      11.447 -31.704 -24.209  0.00  0.00    +0.224 C 
ATOM     11  O   HIS A   1      10.334 -32.030 -23.775  0.00  0.00    -0.287 OA
ENDBRANCH   7  10
ENDBRANCH   1   7
TORSDOF 4
REMARK  Name = ../refined-set-2016/4msn/4msn_pocket.pdb
REMARK  97 active torsions:
REMARK  status: ('A' for Active; 'I' for Inactive)
REMARK    1  A    between atoms: _1  and  _3
REMARK    2  A    between atoms: _3  and  _4
REMARK    3  A    between atoms: _3  and  _6
REMARK    4  A    between atoms: _6  and  _7
REMARK    5  A    between atoms: _12  and  _13
REMARK    6  A    between atoms: _15  and  _17
REMARK    7  A    between atoms: _17  and  _18
REMARK    8  A    between atoms: _17  and  _20
REMARK    9  A    between atoms: _20  and  _21
REMARK   10  A    between atoms: _26  and  _28
REMARK   11  A    between atoms: _28  and  _29
REMARK   12  A    between atoms: _28  and  _31
REMARK   13  A    between atoms: _31  and  _32
REMARK   14  A    between atoms: _37  and  _39
REMARK   15  A    between atoms: _39  and  _40
REMARK   16  A    between atoms: _39  and  _42
REMARK   17  A    between atoms: _42  and  _43
REMARK   18  A    between atoms: _46  and  _48
REMARK   19  A    between atoms: _48  and  _49
REMARK   20  A    between atoms: _48  and  _51
REMARK   21  A    between atoms: _51  and  _52
REMARK   22  A    between atoms: _55  and  _57
REMARK   23  A    between atoms: _57  and  _58
REMARK   24  A    between atoms: _57  and  _60
REMARK   25  A    between atoms: _60  and  _61
REMARK   26  A    between atoms: _64  and  _66
REMARK   27  A    between atoms: _66  and  _67
REMARK   28  A    between atoms: _66  and  _69
REMARK   29  A    between atoms: _71  and  _73
REMARK   30  A    between atoms: _73  and  _74
REMARK   31  A    between atoms: _73  and  _76
REMARK   32  A    between atoms: _76  and  _77
REMARK   33  A    between atoms: _79  and  _81
REMARK   34  A    between atoms: _81  and  _82
REMARK   35  A    between atoms: _81  and  _84
REMARK   36  A    between atoms: _87  and  _89
REMARK   37  A    between atoms: _89  and  _90
REMARK   38  A    between atoms: _89  and  _92
REMARK   39  A    between atoms: _92  and  _93
REMARK   40  A    between atoms: _96  and  _98
REMARK   41  A    between atoms: _98  and  _99
REMARK   42  A    between atoms: _98  and  _101
REMARK   43  A    between atoms: _101  and  _102
REMARK   44  A    between atoms: _105  and  _107
REMARK   45  A    between atoms: _107  and  _108
REMARK   46  A    between atoms: _111  and  _113
REMARK   47  A    between atoms: _113  and  _114
REMARK   48  A    between atoms: _113  and  _116
REMARK   49  A    between atoms: _116  and  _117
REMARK   50  A    between atoms: _120  and  _122
REMARK   51  A    between atoms: _122  and  _123
REMARK   52  A    between atoms: _122  and  _125
REMARK   53  A    between atoms: _125  and  _126
REMARK   54  A    between atoms: _131  and  _132
REMARK   55  A    between atoms: _134  and  _136
REMARK   56  A    between atoms: _136  and  _137
REMARK   57  A    between atoms: _136  and  _139
REMARK   58  A    between atoms: _139  and  _140
REMARK   59  A    between atoms: _146  and  _148
REMARK   60  A    between atoms: _148  and  _149
REMARK   61  A    between atoms: _148  and  _151
REMARK   62  A    between atoms: _151  and  _152
REMARK   63  A    between atoms: _152  and  _153
REMARK   64  A    between atoms: _155  and  _157
REMARK   65  A    between atoms: _157  and  _158
REMARK   66  A    between atoms: _157  and  _160
REMARK   67  A    between atoms: _163  and  _165
REMARK   68  A    between atoms: _165  and  _166
REMARK   69  A    between atoms: _168  and  _170
REMARK   70  A    between atoms: _170  and  _171
REMARK   71  A    between atoms: _170  and  _173
REMARK   72  A    between atoms: _173  and  _174
REMARK   73  A    between atoms: _174  and  _175
REMARK   74  A    between atoms: _180  and  _182
REMARK   75  A    between atoms: _182  and  _183
REMARK   76  A    between atoms: _182  and  _185
REMARK   77  A    between atoms: _185  and  _186
REMARK   78  A    between atoms: _189  and  _191
REMARK   79  A    between atoms: _191  and  _192
REMARK   80  A    between atoms: _194  and  _196
REMARK   81  A    between atoms: _196  and  _197
REMARK   82  A    between atoms: _196  and  _199
REMARK   83  A    between atoms: _199  and  _200
REMARK   84  A    between atoms: _206  and  _208
REMARK   85  A    between atoms: _208  and  _209
REMARK   86  A    between atoms: _208  and  _211
REMARK   87  A    between atoms: _211  and  _212
REMARK   88  A    between atoms: _217  and  _218
REMARK   89  A    between atoms: _220  and  _222
REMARK   90  A    between atoms: _222  and  _223
REMARK   91  A    between atoms: _222  and  _225
REMARK   92  A    between atoms: _228  and  _230
REMARK   93  A    between atoms: _230  and  _231
REMARK   94  A    between atoms: _234  and  _236
REMARK   95  A    between atoms: _236  and  _237
REMARK   96  A    between atoms: _236  and  _239
REMARK   97  A    between atoms: _239  and  _240
REMARK                            x       y       z     vdW  Elec       q    Type
REMARK                         _______ _______ _______ _____ _____    ______ ____
ROOT
ATOM      1  CA  LEU A   1       3.595 -37.710 -36.407  0.00  0.00    +0.133 C 
ENDROOT
BRANCH   1   2
ATOM      2  N   LEU A   1       4.917 -38.265 -36.112  0.00  0.00    -0.239 NA
ATOM      3  H   LEU A   1       5.730 -37.617 -36.084  0.00  0.00    +0.142 HD
ENDBRANCH   1   2
BRANCH   1   4
ATOM      4  C   LEU A   1       2.886 -38.302 -37.639  0.00  0.00    +0.224 C 
ATOM      5  O   LEU A   1       1.656 -38.153 -37.787  0.00  0.00    -0.287 OA
ENDBRANCH   1   4
BRANCH   1   6
ATOM      6  CB  LEU A   1       3.675 -36.184 -36.534  0.00  0.00    +0.025 C 
BRANCH   6   7
ATOM      7  CG  LEU A   1       3.482 -35.312 -35.287  0.00  0.00    +0.002 C 
ATOM      8  CD2 LEU A   1       2.082 -35.499 -34.649  0.00  0.00    +0.000 C 
ATOM      9  CD1 LEU A   1       3.714 -33.852 -35.651  0.00  0.00    +0.000 C 
ENDBRANCH   6   7
ENDBRANCH   1   6
TORSDOF 4
REMARK  Name = ../refined-set-2016/4msn/4msn_pocket.pdb
REMARK  97 active torsions:
REMARK  status: ('A' for Active; 'I' for Inactive)
REMARK    1  A    between atoms: _1  and  _3
REMARK    2  A    between atoms: _3  and  _4
REMARK    3  A    between atoms: _3  and  _6
REMARK    4  A    between atoms: _6  and  _7
REMARK    5  A    between atoms: _12  and  _13
REMARK    6  A    between atoms: _15  and  _17
REMARK    7  A    between atoms: _17  and  _18
REMARK    8  A    between atoms: _17  and  _20
REMARK    9  A    between atoms: _20  and  _21
REMARK   10  A    between atoms: _26  and  _28
REMARK   11  A    between atoms: _28  and  _29
REMARK   12  A    between atoms: _28  and  _31
REMARK   13  A    between atoms: _31  and  _32
REMARK   14  A    between atoms: _37  and  _39
REMARK   15  A    between atoms: _39  and  _40
REMARK   16  A    between atoms: _39  and  _42
REMARK   17  A    between atoms: _42  and  _43
REMARK   18  A    between atoms: _46  and  _48
REMARK   19  A    between atoms: _48  and  _49
REMARK   20  A    between atoms: _48  and  _51
REMARK   21  A    between atoms: _51  and  _52
REMARK   22  A    between atoms: _55  and  _57
REMARK   23  A    between atoms: _57  and  _58
REMARK   24  A    between atoms: _57  and  _60
REMARK   25  A    between atoms: _60  and  _61
REMARK   26  A    between atoms: _64  and  _66
REMARK   27  A    between atoms: _66  and  _67
REMARK   28  A    between atoms: _66  and  _69
REMARK   29  A    between atoms: _71  and  _73
REMARK   30  A    between atoms: _73  and  _74
REMARK   31  A    between atoms: _73  and  _76
REMARK   32  A    between atoms: _76  and  _77
REMARK   33  A    between atoms: _79  and  _81
REMARK   34  A    between atoms: _81  and  _82
REMARK   35  A    between atoms: _81  and  _84
REMARK   36  A    between atoms: _87  and  _89
REMARK   37  A    between atoms: _89  and  _90
REMARK   38  A    between atoms: _89  and  _92
REMARK   39  A    between atoms: _92  and  _93
REMARK   40  A    between atoms: _96  and  _98
REMARK   41  A    between atoms: _98  and  _99
REMARK   42  A    between atoms: _98  and  _101
REMARK   43  A    between atoms: _101  and  _102
REMARK   44  A    between atoms: _105  and  _107
REMARK   45  A    between atoms: _107  and  _108
REMARK   46  A    between atoms: _111  and  _113
REMARK   47  A    between atoms: _113  and  _114
REMARK   48  A    between atoms: _113  and  _116
REMARK   49  A    between atoms: _116  and  _117
REMARK   50  A    between atoms: _120  and  _122
REMARK   51  A    between atoms: _122  and  _123
REMARK   52  A    between atoms: _122  and  _125
REMARK   53  A    between atoms: _125  and  _126
REMARK   54  A    between atoms: _131  and  _132
REMARK   55  A    between atoms: _134  and  _136
REMARK   56  A    between atoms: _136  and  _137
REMARK   57  A    between atoms: _136  and  _139
REMARK   58  A    between atoms: _139  and  _140
REMARK   59  A    between atoms: _146  and  _148
REMARK   60  A    between atoms: _148  and  _149
REMARK   61  A    between atoms: _148  and  _151
REMARK   62  A    between atoms: _151  and  _152
REMARK   63  A    between atoms: _152  and  _153
REMARK   64  A    between atoms: _155  and  _157
REMARK   65  A    between atoms: _157  and  _158
REMARK   66  A    between atoms: _157  and  _160
REMARK   67  A    between atoms: _163  and  _165
REMARK   68  A    between atoms: _165  and  _166
REMARK   69  A    between atoms: _168  and  _170
REMARK   70  A    between atoms: _170  and  _171
REMARK   71  A    between atoms: _170  and  _173
REMARK   72  A    between atoms: _173  and  _174
REMARK   73  A    between atoms: _174  and  _175
REMARK   74  A    between atoms: _180  and  _182
REMARK   75  A    between atoms: _182  and  _183
REMARK   76  A    between atoms: _182  and  _185
REMARK   77  A    between atoms: _185  and  _186
REMARK   78  A    between atoms: _189  and  _191
REMARK   79  A    between atoms: _191  and  _192
REMARK   80  A    between atoms: _194  and  _196
REMARK   81  A    between atoms: _196  and  _197
REMARK   82  A    between atoms: _196  and  _199
REMARK   83  A    between atoms: _199  and  _200
REMARK   84  A    between atoms: _206  and  _208
REMARK   85  A    between atoms: _208  and  _209
REMARK   86  A    between atoms: _208  and  _211
REMARK   87  A    between atoms: _211  and  _212
REMARK   88  A    between atoms: _217  and  _218
REMARK   89  A    between atoms: _220  and  _222
REMARK   90  A    between atoms: _222  and  _223
REMARK   91  A    between atoms: _222  and  _225
REMARK   92  A    between atoms: _228  and  _230
REMARK   93  A    between atoms: _230  and  _231
REMARK   94  A    between atoms: _234  and  _236
REMARK   95  A    between atoms: _236  and  _237
REMARK   96  A    between atoms: _236  and  _239
REMARK   97  A    between atoms: _239  and  _240
REMARK                            x       y       z     vdW  Elec       q    Type
REMARK                         _______ _______ _______ _____ _____    ______ ____
ROOT
ATOM      1  CA  CYS A   3       2.002 -30.192 -25.107  0.00  0.00    +0.160 C 
ENDROOT
BRANCH   1   3
ATOM      2  C   LEU A   2       2.279 -30.611 -27.499  0.00  0.00    +0.241 C 
ATOM      3  N   CYS A   3       2.580 -30.926 -26.242  0.00  0.00    -0.296 N 
ATOM      4  H   CYS A   3       3.239 -31.709 -26.058  0.00  0.00    +0.150 HD
ATOM      5  O   LEU A   2       1.670 -29.589 -27.794  0.00  0.00    -0.273 OA
BRANCH   2   6
ATOM      6  CA  LEU A   2       2.730 -31.562 -28.600  0.00  0.00    +0.149 C 
BRANCH   6   8
ATOM      7  C   ASP A   1       4.571 -33.059 -27.988  0.00  0.00    +0.239 C 
ATOM      8  N   LEU A   2       3.267 -32.829 -28.101  0.00  0.00    -0.297 N 
ATOM      9  H   LEU A   2       2.602 -33.579 -27.824  0.00  0.00    +0.150 HD
ATOM     10  O   ASP A   1       5.431 -32.204 -28.204  0.00  0.00    -0.274 OA
BRANCH   7  11
ATOM     11  CA  ASP A   1       4.977 -34.458 -27.536  0.00  0.00    +0.156 C 
BRANCH  11  12
ATOM     12  N   ASP A   1       4.046 -35.043 -26.586  0.00  0.00    -0.238 NA
ATOM     13  H   ASP A   1       3.649 -35.983 -26.785  0.00  0.00    +0.142 HD
ENDBRANCH  11  12
BRANCH  11  14
ATOM     14  CB  ASP A   1       5.159 -35.377 -28.748  0.00  0.00    +0.140 C 
BRANCH  14  15
ATOM     15  CG  ASP A   1       6.403 -35.038 -29.547  0.00  0.00    +0.367 C 
ATOM     16  OD2 ASP A   1       7.219 -34.237 -29.055  0.00  0.00    -0.246 OA
ATOM     17  OD1 ASP A   1       6.567 -35.558 -30.667  0.00  0.00    -0.246 OA
ENDBRANCH  14  15
ENDBRANCH  11  14
ENDBRANCH   7  11
ENDBRANCH   6   8
BRANCH   6  18
ATOM     18  CB  LEU A   2       1.542 -31.814 -29.545  0.00  0.00    +0.029 C 
BRANCH  18  19
ATOM     19  CG  LEU A   2       1.609 -32.841 -30.682  0.00  0.00    +0.002 C 
ATOM     20  CD2 LEU A   2       0.260 -32.896 -31.426  0.00  0.00    +0.000 C 
ATOM     21  CD1 LEU A   2       2.756 -32.528 -31.652  0.00  0.00    +0.000 C 
ENDBRANCH  18  19
ENDBRANCH   6  18
ENDBRANCH   2   6
ENDBRANCH   1   3
BRANCH   1  22
ATOM     22  C   CYS A   3       2.358 -28.702 -25.044  0.00  0.00    +0.242 C 
ATOM     23  O   CYS A   3       1.804 -27.965 -24.228  0.00  0.00    -0.273 OA
ATOM     24  N   SER A   4       3.254 -28.254 -25.921  0.00  0.00    -0.295 N 
ATOM     25  H   SER A   4       3.772 -28.936 -26.510  0.00  0.00    +0.150 HD
BRANCH  24  26
ATOM     26  CA  SER A   4       3.526 -26.828 -26.075  0.00  0.00    +0.178 C 
BRANCH  26  27
ATOM     27  C   SER A   4       2.245 -26.054 -26.326  0.00  0.00    +0.243 C 
ATOM     28  O   SER A   4       2.147 -24.888 -25.945  0.00  0.00    -0.273 OA
ATOM     29  N   VAL A   5       1.270 -26.708 -26.960  0.00  0.00    -0.298 N 
ATOM     30  H   VAL A   5       1.422 -27.706 -27.209  0.00  0.00    +0.150 HD
BRANCH  29  31
ATOM     31  CA  VAL A   5      -0.012 -26.081 -27.324  0.00  0.00    +0.137 C 
BRANCH  31  32
ATOM     32  CB  VAL A   5      -0.604 -26.672 -28.640  0.00  0.00    +0.026 C 
ATOM     33  CG2 VAL A   5      -1.187 -28.064 -28.420  0.00  0.00    +0.002 C 
ATOM     34  CG1 VAL A   5       0.438 -26.687 -29.770  0.00  0.00    +0.002 C 
ENDBRANCH  31  32
BRANCH  31  35
ATOM     35  C   VAL A   5      -1.070 -26.145 -26.222  0.00  0.00    +0.227 C 
ATOM     36  O   VAL A   5      -2.225 -25.725 -26.438  0.00  0.00    -0.286 OA
ENDBRANCH  31  35
ENDBRANCH  29  31
ENDBRANCH  26  27
BRANCH  26  37
ATOM     37  CB  SER A   4       4.533 -26.548 -27.205  0.00  0.00    +0.166 C 
BRANCH  37  38
ATOM     38  OG  SER A   4       4.427 -27.470 -28.289  0.00  0.00    -0.380 OA
ATOM     39  H   SER A   4       5.096 -27.241 -28.982  0.00  0.00    +0.211 HD
ENDBRANCH  37  38
ENDBRANCH  26  37
ENDBRANCH  24  26
ENDBRANCH   1  22
BRANCH   1  40
ATOM     40  CB  CYS A   3       2.297 -30.897 -23.778  0.00  0.00    +0.098 C 
ATOM     41  SG  CYS A   3       3.972 -30.713 -23.163  0.00  0.00    -0.080 S 
ENDBRANCH   1  40
TORSDOF 18
REMARK  Name = ../refined-set-2016/4msn/4msn_pocket.pdb
REMARK  97 active torsions:
REMARK  status: ('A' for Active; 'I' for Inactive)
REMARK    1  A    between atoms: _1  and  _3
REMARK    2  A    between atoms: _3  and  _4
REMARK    3  A    between atoms: _3  and  _6
REMARK    4  A    between atoms: _6  and  _7
REMARK    5  A    between atoms: _12  and  _13
REMARK    6  A    between atoms: _15  and  _17
REMARK    7  A    between atoms: _17  and  _18
REMARK    8  A    between atoms: _17  and  _20
REMARK    9  A    between atoms: _20  and  _21
REMARK   10  A    between atoms: _26  and  _28
REMARK   11  A    between atoms: _28  and  _29
REMARK   12  A    between atoms: _28  and  _31
REMARK   13  A    between atoms: _31  and  _32
REMARK   14  A    between atoms: _37  and  _39
REMARK   15  A    between atoms: _39  and  _40
REMARK   16  A    between atoms: _39  and  _42
REMARK   17  A    between atoms: _42  and  _43
REMARK   18  A    between atoms: _46  and  _48
REMARK   19  A    between atoms: _48  and  _49
REMARK   20  A    between atoms: _48  and  _51
REMARK   21  A    between atoms: _51  and  _52
REMARK   22  A    between atoms: _55  and  _57
REMARK   23  A    between atoms: _57  and  _58
REMARK   24  A    between atoms: _57  and  _60
REMARK   25  A    between atoms: _60  and  _61
REMARK   26  A    between atoms: _64  and  _66
REMARK   27  A    between atoms: _66  and  _67
REMARK   28  A    between atoms: _66  and  _69
REMARK   29  A    between atoms: _71  and  _73
REMARK   30  A    between atoms: _73  and  _74
REMARK   31  A    between atoms: _73  and  _76
REMARK   32  A    between atoms: _76  and  _77
REMARK   33  A    between atoms: _79  and  _81
REMARK   34  A    between atoms: _81  and  _82
REMARK   35  A    between atoms: _81  and  _84
REMARK   36  A    between atoms: _87  and  _89
REMARK   37  A    between atoms: _89  and  _90
REMARK   38  A    between atoms: _89  and  _92
REMARK   39  A    between atoms: _92  and  _93
REMARK   40  A    between atoms: _96  and  _98
REMARK   41  A    between atoms: _98  and  _99
REMARK   42  A    between atoms: _98  and  _101
REMARK   43  A    between atoms: _101  and  _102
REMARK   44  A    between atoms: _105  and  _107
REMARK   45  A    between atoms: _107  and  _108
REMARK   46  A    between atoms: _111  and  _113
REMARK   47  A    between atoms: _113  and  _114
REMARK   48  A    between atoms: _113  and  _116
REMARK   49  A    between atoms: _116  and  _117
REMARK   50  A    between atoms: _120  and  _122
REMARK   51  A    between atoms: _122  and  _123
REMARK   52  A    between atoms: _122  and  _125
REMARK   53  A    between atoms: _125  and  _126
REMARK   54  A    between atoms: _131  and  _132
REMARK   55  A    between atoms: _134  and  _136
REMARK   56  A    between atoms: _136  and  _137
REMARK   57  A    between atoms: _136  and  _139
REMARK   58  A    between atoms: _139  and  _140
REMARK   59  A    between atoms: _146  and  _148
REMARK   60  A    between atoms: _148  and  _149
REMARK   61  A    between atoms: _148  and  _151
REMARK   62  A    between atoms: _151  and  _152
REMARK   63  A    between atoms: _152  and  _153
REMARK   64  A    between atoms: _155  and  _157
REMARK   65  A    between atoms: _157  and  _158
REMARK   66  A    between atoms: _157  and  _160
REMARK   67  A    between atoms: _163  and  _165
REMARK   68  A    between atoms: _165  and  _166
REMARK   69  A    between atoms: _168  and  _170
REMARK   70  A    between atoms: _170  and  _171
REMARK   71  A    between atoms: _170  and  _173
REMARK   72  A    between atoms: _173  and  _174
REMARK   73  A    between atoms: _174  and  _175
REMARK   74  A    between atoms: _180  and  _182
REMARK   75  A    between atoms: _182  and  _183
REMARK   76  A    between atoms: _182  and  _185
REMARK   77  A    between atoms: _185  and  _186
REMARK   78  A    between atoms: _189  and  _191
REMARK   79  A    between atoms: _191  and  _192
REMARK   80  A    between atoms: _194  and  _196
REMARK   81  A    between atoms: _196  and  _197
REMARK   82  A    between atoms: _196  and  _199
REMARK   83  A    between atoms: _199  and  _200
REMARK   84  A    between atoms: _206  and  _208
REMARK   85  A    between atoms: _208  and  _209
REMARK   86  A    between atoms: _208  and  _211
REMARK   87  A    between atoms: _211  and  _212
REMARK   88  A    between atoms: _217  and  _218
REMARK   89  A    between atoms: _220  and  _222
REMARK   90  A    between atoms: _222  and  _223
REMARK   91  A    between atoms: _222  and  _225
REMARK   92  A    between atoms: _228  and  _230
REMARK   93  A    between atoms: _230  and  _231
REMARK   94  A    between atoms: _234  and  _236
REMARK   95  A    between atoms: _236  and  _237
REMARK   96  A    between atoms: _236  and  _239
REMARK   97  A    between atoms: _239  and  _240
REMARK                            x       y       z     vdW  Elec       q    Type
REMARK                         _______ _______ _______ _____ _____    ______ ____
ROOT
ATOM      1  CA  THR A   1       2.671 -21.372 -26.059  0.00  0.00    +0.160 C 
ENDROOT
BRANCH   1   2
ATOM      2  N   THR A   1       2.965 -20.828 -24.731  0.00  0.00    -0.237 NA
ATOM      3  H   THR A   1       2.170 -20.621 -24.094  0.00  0.00    +0.142 HD
ENDBRANCH   1   2
BRANCH   1   4
ATOM      4  CB  THR A   1       1.120 -21.522 -26.289  0.00  0.00    +0.134 C 
ATOM      5  CG2 THR A   1       0.817 -21.951 -27.696  0.00  0.00    +0.034 C 
BRANCH   4   6
ATOM      6  OG1 THR A   1       0.589 -22.515 -25.403  0.00  0.00    -0.383 OA
ATOM      7  HG1 THR A   1       1.031 -23.383 -25.579  0.00  0.00    +0.210 HD
ENDBRANCH   4   6
ENDBRANCH   1   4
BRANCH   1   8
ATOM      8  C   THR A   1       3.294 -20.500 -27.158  0.00  0.00    +0.227 C 
ATOM      9  O   THR A   1       3.825 -21.016 -28.139  0.00  0.00    -0.287 OA
ENDBRANCH   1   8
TORSDOF 4
REMARK  Name = ../refined-set-2016/4msn/4msn_pocket.pdb
REMARK  97 active torsions:
REMARK  status: ('A' for Active; 'I' for Inactive)
REMARK    1  A    between atoms: _1  and  _3
REMARK    2  A    between atoms: _3  and  _4
REMARK    3  A    between atoms: _3  and  _6
REMARK    4  A    between atoms: _6  and  _7
REMARK    5  A    between atoms: _12  and  _13
REMARK    6  A    between atoms: _15  and  _17
REMARK    7  A    between atoms: _17  and  _18
REMARK    8  A    between atoms: _17  and  _20
REMARK    9  A    between atoms: _20  and  _21
REMARK   10  A    between atoms: _26  and  _28
REMARK   11  A    between atoms: _28  and  _29
REMARK   12  A    between atoms: _28  and  _31
REMARK   13  A    between atoms: _31  and  _32
REMARK   14  A    between atoms: _37  and  _39
REMARK   15  A    between atoms: _39  and  _40
REMARK   16  A    between atoms: _39  and  _42
REMARK   17  A    between atoms: _42  and  _43
REMARK   18  A    between atoms: _46  and  _48
REMARK   19  A    between atoms: _48  and  _49
REMARK   20  A    between atoms: _48  and  _51
REMARK   21  A    between atoms: _51  and  _52
REMARK   22  A    between atoms: _55  and  _57
REMARK   23  A    between atoms: _57  and  _58
REMARK   24  A    between atoms: _57  and  _60
REMARK   25  A    between atoms: _60  and  _61
REMARK   26  A    between atoms: _64  and  _66
REMARK   27  A    between atoms: _66  and  _67
REMARK   28  A    between atoms: _66  and  _69
REMARK   29  A    between atoms: _71  and  _73
REMARK   30  A    between atoms: _73  and  _74
REMARK   31  A    between atoms: _73  and  _76
REMARK   32  A    between atoms: _76  and  _77
REMARK   33  A    between atoms: _79  and  _81
REMARK   34  A    between atoms: _81  and  _82
REMARK   35  A    between atoms: _81  and  _84
REMARK   36  A    between atoms: _87  and  _89
REMARK   37  A    between atoms: _89  and  _90
REMARK   38  A    between atoms: _89  and  _92
REMARK   39  A    between atoms: _92  and  _93
REMARK   40  A    between atoms: _96  and  _98
REMARK   41  A    between atoms: _98  and  _99
REMARK   42  A    between atoms: _98  and  _101
REMARK   43  A    between atoms: _101  and  _102
REMARK   44  A    between atoms: _105  and  _107
REMARK   45  A    between atoms: _107  and  _108
REMARK   46  A    between atoms: _111  and  _113
REMARK   47  A    between atoms: _113  and  _114
REMARK   48  A    between atoms: _113  and  _116
REMARK   49  A    between atoms: _116  and  _117
REMARK   50  A    between atoms: _120  and  _122
REMARK   51  A    between atoms: _122  and  _123
REMARK   52  A    between atoms: _122  and  _125
REMARK   53  A    between atoms: _125  and  _126
REMARK   54  A    between atoms: _131  and  _132
REMARK   55  A    between atoms: _134  and  _136
REMARK   56  A    between atoms: _136  and  _137
REMARK   57  A    between atoms: _136  and  _139
REMARK   58  A    between atoms: _139  and  _140
REMARK   59  A    between atoms: _146  and  _148
REMARK   60  A    between atoms: _148  and  _149
REMARK   61  A    between atoms: _148  and  _151
REMARK   62  A    between atoms: _151  and  _152
REMARK   63  A    between atoms: _152  and  _153
REMARK   64  A    between atoms: _155  and  _157
REMARK   65  A    between atoms: _157  and  _158
REMARK   66  A    between atoms: _157  and  _160
REMARK   67  A    between atoms: _163  and  _165
REMARK   68  A    between atoms: _165  and  _166
REMARK   69  A    between atoms: _168  and  _170
REMARK   70  A    between atoms: _170  and  _171
REMARK   71  A    between atoms: _170  and  _173
REMARK   72  A    between atoms: _173  and  _174
REMARK   73  A    between atoms: _174  and  _175
REMARK   74  A    between atoms: _180  and  _182
REMARK   75  A    between atoms: _182  and  _183
REMARK   76  A    between atoms: _182  and  _185
REMARK   77  A    between atoms: _185  and  _186
REMARK   78  A    between atoms: _189  and  _191
REMARK   79  A    between atoms: _191  and  _192
REMARK   80  A    between atoms: _194  and  _196
REMARK   81  A    between atoms: _196  and  _197
REMARK   82  A    between atoms: _196  and  _199
REMARK   83  A    between atoms: _199  and  _200
REMARK   84  A    between atoms: _206  and  _208
REMARK   85  A    between atoms: _208  and  _209
REMARK   86  A    between atoms: _208  and  _211
REMARK   87  A    between atoms: _211  and  _212
REMARK   88  A    between atoms: _217  and  _218
REMARK   89  A    between atoms: _220  and  _222
REMARK   90  A    between atoms: _222  and  _223
REMARK   91  A    between atoms: _222  and  _225
REMARK   92  A    between atoms: _228  and  _230
REMARK   93  A    between atoms: _230  and  _231
REMARK   94  A    between atoms: _234  and  _236
REMARK   95  A    between atoms: _236  and  _237
REMARK   96  A    between atoms: _236  and  _239
REMARK   97  A    between atoms: _239  and  _240
REMARK                            x       y       z     vdW  Elec       q    Type
REMARK                         _______ _______ _______ _____ _____    ______ ____
ROOT
ATOM      1  C   THR A   1       7.696 -22.199 -29.169  0.00  0.00    +0.241 C 
ATOM      2  N   ALA A   2       6.694 -21.571 -29.779  0.00  0.00    -0.298 N 
ATOM      3  H   ALA A   2       5.967 -21.098 -29.206  0.00  0.00    +0.150 HD
ATOM      4  O   THR A   1       8.555 -22.829 -29.779  0.00  0.00    -0.274 OA
ENDROOT
BRANCH   2   5
ATOM      5  CA  ALA A   2       6.592 -21.531 -31.241  0.00  0.00    +0.137 C 
ATOM      6  CB  ALA A   2       5.306 -20.877 -31.682  0.00  0.00    +0.030 C 
BRANCH   5   7
ATOM      7  C   ALA A   2       7.804 -20.854 -31.890  0.00  0.00    +0.227 C 
ATOM      8  O   ALA A   2       8.326 -21.351 -32.892  0.00  0.00    -0.286 OA
ENDBRANCH   5   7
ENDBRANCH   2   5
BRANCH   1   9
ATOM      9  CA  THR A   1       7.760 -22.094 -27.647  0.00  0.00    +0.172 C 
BRANCH   9  10
ATOM     10  N   THR A   1       7.338 -20.777 -27.161  0.00  0.00    -0.236 NA
ATOM     11  H   THR A   1       6.468 -20.710 -26.595  0.00  0.00    +0.142 HD
ENDBRANCH   9  10
BRANCH   9  12
ATOM     12  CB  THR A   1       6.940 -23.221 -26.997  0.00  0.00    +0.135 C 
ATOM     13  CG2 THR A   1       7.544 -24.582 -27.295  0.00  0.00    +0.034 C 
BRANCH  12  14
ATOM     14  OG1 THR A   1       6.934 -23.034 -25.580  0.00  0.00    -0.383 OA
ATOM     15  HG1 THR A   1       6.527 -22.158 -25.366  0.00  0.00    +0.210 HD
ENDBRANCH  12  14
ENDBRANCH   9  12
ENDBRANCH   1   9
TORSDOF 6
REMARK  Name = ../refined-set-2016/4msn/4msn_pocket.pdb
REMARK  97 active torsions:
REMARK  status: ('A' for Active; 'I' for Inactive)
REMARK    1  A    between atoms: _1  and  _3
REMARK    2  A    between atoms: _3  and  _4
REMARK    3  A    between atoms: _3  and  _6
REMARK    4  A    between atoms: _6  and  _7
REMARK    5  A    between atoms: _12  and  _13
REMARK    6  A    between atoms: _15  and  _17
REMARK    7  A    between atoms: _17  and  _18
REMARK    8  A    between atoms: _17  and  _20
REMARK    9  A    between atoms: _20  and  _21
REMARK   10  A    between atoms: _26  and  _28
REMARK   11  A    between atoms: _28  and  _29
REMARK   12  A    between atoms: _28  and  _31
REMARK   13  A    between atoms: _31  and  _32
REMARK   14  A    between atoms: _37  and  _39
REMARK   15  A    between atoms: _39  and  _40
REMARK   16  A    between atoms: _39  and  _42
REMARK   17  A    between atoms: _42  and  _43
REMARK   18  A    between atoms: _46  and  _48
REMARK   19  A    between atoms: _48  and  _49
REMARK   20  A    between atoms: _48  and  _51
REMARK   21  A    between atoms: _51  and  _52
REMARK   22  A    between atoms: _55  and  _57
REMARK   23  A    between atoms: _57  and  _58
REMARK   24  A    between atoms: _57  and  _60
REMARK   25  A    between atoms: _60  and  _61
REMARK   26  A    between atoms: _64  and  _66
REMARK   27  A    between atoms: _66  and  _67
REMARK   28  A    between atoms: _66  and  _69
REMARK   29  A    between atoms: _71  and  _73
REMARK   30  A    between atoms: _73  and  _74
REMARK   31  A    between atoms: _73  and  _76
REMARK   32  A    between atoms: _76  and  _77
REMARK   33  A    between atoms: _79  and  _81
REMARK   34  A    between atoms: _81  and  _82
REMARK   35  A    between atoms: _81  and  _84
REMARK   36  A    between atoms: _87  and  _89
REMARK   37  A    between atoms: _89  and  _90
REMARK   38  A    between atoms: _89  and  _92
REMARK   39  A    between atoms: _92  and  _93
REMARK   40  A    between atoms: _96  and  _98
REMARK   41  A    between atoms: _98  and  _99
REMARK   42  A    between atoms: _98  and  _101
REMARK   43  A    between atoms: _101  and  _102
REMARK   44  A    between atoms: _105  and  _107
REMARK   45  A    between atoms: _107  and  _108
REMARK   46  A    between atoms: _111  and  _113
REMARK   47  A    between atoms: _113  and  _114
REMARK   48  A    between atoms: _113  and  _116
REMARK   49  A    between atoms: _116  and  _117
REMARK   50  A    between atoms: _120  and  _122
REMARK   51  A    between atoms: _122  and  _123
REMARK   52  A    between atoms: _122  and  _125
REMARK   53  A    between atoms: _125  and  _126
REMARK   54  A    between atoms: _131  and  _132
REMARK   55  A    between atoms: _134  and  _136
REMARK   56  A    between atoms: _136  and  _137
REMARK   57  A    between atoms: _136  and  _139
REMARK   58  A    between atoms: _139  and  _140
REMARK   59  A    between atoms: _146  and  _148
REMARK   60  A    between atoms: _148  and  _149
REMARK   61  A    between atoms: _148  and  _151
REMARK   62  A    between atoms: _151  and  _152
REMARK   63  A    between atoms: _152  and  _153
REMARK   64  A    between atoms: _155  and  _157
REMARK   65  A    between atoms: _157  and  _158
REMARK   66  A    between atoms: _157  and  _160
REMARK   67  A    between atoms: _163  and  _165
REMARK   68  A    between atoms: _165  and  _166
REMARK   69  A    between atoms: _168  and  _170
REMARK   70  A    between atoms: _170  and  _171
REMARK   71  A    between atoms: _170  and  _173
REMARK   72  A    between atoms: _173  and  _174
REMARK   73  A    between atoms: _174  and  _175
REMARK   74  A    between atoms: _180  and  _182
REMARK   75  A    between atoms: _182  and  _183
REMARK   76  A    between atoms: _182  and  _185
REMARK   77  A    between atoms: _185  and  _186
REMARK   78  A    between atoms: _189  and  _191
REMARK   79  A    between atoms: _191  and  _192
REMARK   80  A    between atoms: _194  and  _196
REMARK   81  A    between atoms: _196  and  _197
REMARK   82  A    between atoms: _196  and  _199
REMARK   83  A    between atoms: _199  and  _200
REMARK   84  A    between atoms: _206  and  _208
REMARK   85  A    between atoms: _208  and  _209
REMARK   86  A    between atoms: _208  and  _211
REMARK   87  A    between atoms: _211  and  _212
REMARK   88  A    between atoms: _217  and  _218
REMARK   89  A    between atoms: _220  and  _222
REMARK   90  A    between atoms: _222  and  _223
REMARK   91  A    between atoms: _222  and  _225
REMARK   92  A    between atoms: _228  and  _230
REMARK   93  A    between atoms: _230  and  _231
REMARK   94  A    between atoms: _234  and  _236
REMARK   95  A    between atoms: _236  and  _237
REMARK   96  A    between atoms: _236  and  _239
REMARK   97  A    between atoms: _239  and  _240
REMARK                            x       y       z     vdW  Elec       q    Type
REMARK                         _______ _______ _______ _____ _____    ______ ____
ROOT
ATOM      1  CA  TYR A   2      10.060 -22.137 -36.090  0.00  0.00    +0.141 C 
ENDROOT
BRANCH   1   3
ATOM      2  C   ILE A   1      10.116 -24.001 -34.522  0.00  0.00    +0.238 C 
ATOM      3  N   TYR A   2       9.803 -22.731 -34.783  0.00  0.00    -0.298 N 
ATOM      4  H   TYR A   2       9.366 -22.152 -34.038  0.00  0.00    +0.150 HD
ATOM      5  O   ILE A   1      10.644 -24.746 -35.352  0.00  0.00    -0.274 OA
BRANCH   2   6
ATOM      6  CA  ILE A   1       9.800 -24.506 -33.110  0.00  0.00    +0.145 C 
BRANCH   6   7
ATOM      7  N   ILE A   1      10.218 -23.516 -32.111  0.00  0.00    -0.238 NA
ATOM      8  H   ILE A   1       9.494 -23.100 -31.491  0.00  0.00    +0.142 HD
ENDBRANCH   6   7
BRANCH   6   9
ATOM      9  CB  ILE A   1       8.271 -24.846 -32.997  0.00  0.00    +0.025 C 
ATOM     10  CG2 ILE A   1       7.817 -25.724 -34.139  0.00  0.00    +0.002 C 
BRANCH   9  11
ATOM     11  CG1 ILE A   1       7.965 -25.567 -31.681  0.00  0.00    +0.002 C 
ATOM     12  CD1 ILE A   1       6.532 -25.458 -31.212  0.00  0.00    +0.000 C 
ENDBRANCH   9  11
ENDBRANCH   6   9
ENDBRANCH   2   6
ENDBRANCH   1   3
BRANCH   1  13
ATOM     13  C   TYR A   2      11.533 -21.797 -36.339  0.00  0.00    +0.227 C 
ATOM     14  O   TYR A   2      12.026 -22.014 -37.441  0.00  0.00    -0.286 OA
ENDBRANCH   1  13
BRANCH   1  15
ATOM     15  CB  TYR A   2       9.148 -20.950 -36.338  0.00  0.00    +0.054 C 
BRANCH  15  16
ATOM     16  CG  TYR A   2       7.762 -21.371 -36.777  0.00  0.00    -0.020 A 
ATOM     17  CD2 TYR A   2       6.735 -21.547 -35.846  0.00  0.00    -0.001 A 
ATOM     18  CE2 TYR A   2       5.460 -21.940 -36.249  0.00  0.00    +0.036 A 
ATOM     19  CZ  TYR A   2       5.211 -22.160 -37.594  0.00  0.00    +0.134 A 
ATOM     20  CE1 TYR A   2       6.215 -21.999 -38.530  0.00  0.00    +0.036 A 
ATOM     21  CD1 TYR A   2       7.482 -21.608 -38.120  0.00  0.00    -0.001 A 
BRANCH  19  22
ATOM     22  OH  TYR A   2       3.964 -22.549 -38.005  0.00  0.00    -0.506 OA
ATOM     23  HH  TYR A   2       3.365 -22.618 -37.219  0.00  0.00    +0.292 HD
ENDBRANCH  19  22
ENDBRANCH  15  16
ENDBRANCH   1  15
TORSDOF 9
REMARK  Name = ../refined-set-2016/4msn/4msn_pocket.pdb
REMARK  97 active torsions:
REMARK  status: ('A' for Active; 'I' for Inactive)
REMARK    1  A    between atoms: _1  and  _3
REMARK    2  A    between atoms: _3  and  _4
REMARK    3  A    between atoms: _3  and  _6
REMARK    4  A    between atoms: _6  and  _7
REMARK    5  A    between atoms: _12  and  _13
REMARK    6  A    between atoms: _15  and  _17
REMARK    7  A    between atoms: _17  and  _18
REMARK    8  A    between atoms: _17  and  _20
REMARK    9  A    between atoms: _20  and  _21
REMARK   10  A    between atoms: _26  and  _28
REMARK   11  A    between atoms: _28  and  _29
REMARK   12  A    between atoms: _28  and  _31
REMARK   13  A    between atoms: _31  and  _32
REMARK   14  A    between atoms: _37  and  _39
REMARK   15  A    between atoms: _39  and  _40
REMARK   16  A    between atoms: _39  and  _42
REMARK   17  A    between atoms: _42  and  _43
REMARK   18  A    between atoms: _46  and  _48
REMARK   19  A    between atoms: _48  and  _49
REMARK   20  A    between atoms: _48  and  _51
REMARK   21  A    between atoms: _51  and  _52
REMARK   22  A    between atoms: _55  and  _57
REMARK   23  A    between atoms: _57  and  _58
REMARK   24  A    between atoms: _57  and  _60
REMARK   25  A    between atoms: _60  and  _61
REMARK   26  A    between atoms: _64  and  _66
REMARK   27  A    between atoms: _66  and  _67
REMARK   28  A    between atoms: _66  and  _69
REMARK   29  A    between atoms: _71  and  _73
REMARK   30  A    between atoms: _73  and  _74
REMARK   31  A    between atoms: _73  and  _76
REMARK   32  A    between atoms: _76  and  _77
REMARK   33  A    between atoms: _79  and  _81
REMARK   34  A    between atoms: _81  and  _82
REMARK   35  A    between atoms: _81  and  _84
REMARK   36  A    between atoms: _87  and  _89
REMARK   37  A    between atoms: _89  and  _90
REMARK   38  A    between atoms: _89  and  _92
REMARK   39  A    between atoms: _92  and  _93
REMARK   40  A    between atoms: _96  and  _98
REMARK   41  A    between atoms: _98  and  _99
REMARK   42  A    between atoms: _98  and  _101
REMARK   43  A    between atoms: _101  and  _102
REMARK   44  A    between atoms: _105  and  _107
REMARK   45  A    between atoms: _107  and  _108
REMARK   46  A    between atoms: _111  and  _113
REMARK   47  A    between atoms: _113  and  _114
REMARK   48  A    between atoms: _113  and  _116
REMARK   49  A    between atoms: _116  and  _117
REMARK   50  A    between atoms: _120  and  _122
REMARK   51  A    between atoms: _122  and  _123
REMARK   52  A    between atoms: _122  and  _125
REMARK   53  A    between atoms: _125  and  _126
REMARK   54  A    between atoms: _131  and  _132
REMARK   55  A    between atoms: _134  and  _136
REMARK   56  A    between atoms: _136  and  _137
REMARK   57  A    between atoms: _136  and  _139
REMARK   58  A    between atoms: _139  and  _140
REMARK   59  A    between atoms: _146  and  _148
REMARK   60  A    between atoms: _148  and  _149
REMARK   61  A    between atoms: _148  and  _151
REMARK   62  A    between atoms: _151  and  _152
REMARK   63  A    between atoms: _152  and  _153
REMARK   64  A    between atoms: _155  and  _157
REMARK   65  A    between atoms: _157  and  _158
REMARK   66  A    between atoms: _157  and  _160
REMARK   67  A    between atoms: _163  and  _165
REMARK   68  A    between atoms: _165  and  _166
REMARK   69  A    between atoms: _168  and  _170
REMARK   70  A    between atoms: _170  and  _171
REMARK   71  A    between atoms: _170  and  _173
REMARK   72  A    between atoms: _173  and  _174
REMARK   73  A    between atoms: _174  and  _175
REMARK   74  A    between atoms: _180  and  _182
REMARK   75  A    between atoms: _182  and  _183
REMARK   76  A    between atoms: _182  and  _185
REMARK   77  A    between atoms: _185  and  _186
REMARK   78  A    between atoms: _189  and  _191
REMARK   79  A    between atoms: _191  and  _192
REMARK   80  A    between atoms: _194  and  _196
REMARK   81  A    between atoms: _196  and  _197
REMARK   82  A    between atoms: _196  and  _199
REMARK   83  A    between atoms: _199  and  _200
REMARK   84  A    between atoms: _206  and  _208
REMARK   85  A    between atoms: _208  and  _209
REMARK   86  A    between atoms: _208  and  _211
REMARK   87  A    between atoms: _211  and  _212
REMARK   88  A    between atoms: _217  and  _218
REMARK   89  A    between atoms: _220  and  _222
REMARK   90  A    between atoms: _222  and  _223
REMARK   91  A    between atoms: _222  and  _225
REMARK   92  A    between atoms: _228  and  _230
REMARK   93  A    between atoms: _230  and  _231
REMARK   94  A    between atoms: _234  and  _236
REMARK   95  A    between atoms: _236  and  _237
REMARK   96  A    between atoms: _236  and  _239
REMARK   97  A    between atoms: _239  and  _240
REMARK                            x       y       z     vdW  Elec       q    Type
REMARK                         _______ _______ _______ _____ _____    ______ ____
ROOT
ATOM      1  CB  PHE A   1      10.822 -24.762 -39.164  0.00  0.00    +0.051 C 
ENDROOT
BRANCH   1   2
ATOM      2  CG  PHE A   1       9.962 -25.783 -38.459  0.00  0.00    -0.020 A 
ATOM      3  CD2 PHE A   1       8.710 -25.422 -37.970  0.00  0.00    -0.004 A 
ATOM      4  CE2 PHE A   1       7.895 -26.350 -37.336  0.00  0.00    -0.000 A 
ATOM      5  CZ  PHE A   1       8.324 -27.661 -37.185  0.00  0.00    -0.000 A 
ATOM      6  CE1 PHE A   1       9.572 -28.039 -37.672  0.00  0.00    -0.000 A 
ATOM      7  CD1 PHE A   1      10.378 -27.103 -38.316  0.00  0.00    -0.004 A 
ENDBRANCH   1   2
BRANCH   1   8
ATOM      8  CA  PHE A   1      12.327 -25.057 -39.112  0.00  0.00    +0.137 C 
BRANCH   8   9
ATOM      9  N   PHE A   1      12.867 -24.819 -37.780  0.00  0.00    -0.239 NA
ATOM     10  H   PHE A   1      12.244 -24.454 -37.032  0.00  0.00    +0.142 HD
ENDBRANCH   8   9
BRANCH   8  11
ATOM     11  C   PHE A   1      13.057 -24.219 -40.170  0.00  0.00    +0.224 C 
ATOM     12  O   PHE A   1      13.442 -24.736 -41.219  0.00  0.00    -0.287 OA
ENDBRANCH   8  11
ENDBRANCH   1   8
TORSDOF 4
REMARK  Name = ../refined-set-2016/4msn/4msn_pocket.pdb
REMARK  97 active torsions:
REMARK  status: ('A' for Active; 'I' for Inactive)
REMARK    1  A    between atoms: _1  and  _3
REMARK    2  A    between atoms: _3  and  _4
REMARK    3  A    between atoms: _3  and  _6
REMARK    4  A    between atoms: _6  and  _7
REMARK    5  A    between atoms: _12  and  _13
REMARK    6  A    between atoms: _15  and  _17
REMARK    7  A    between atoms: _17  and  _18
REMARK    8  A    between atoms: _17  and  _20
REMARK    9  A    between atoms: _20  and  _21
REMARK   10  A    between atoms: _26  and  _28
REMARK   11  A    between atoms: _28  and  _29
REMARK   12  A    between atoms: _28  and  _31
REMARK   13  A    between atoms: _31  and  _32
REMARK   14  A    between atoms: _37  and  _39
REMARK   15  A    between atoms: _39  and  _40
REMARK   16  A    between atoms: _39  and  _42
REMARK   17  A    between atoms: _42  and  _43
REMARK   18  A    between atoms: _46  and  _48
REMARK   19  A    between atoms: _48  and  _49
REMARK   20  A    between atoms: _48  and  _51
REMARK   21  A    between atoms: _51  and  _52
REMARK   22  A    between atoms: _55  and  _57
REMARK   23  A    between atoms: _57  and  _58
REMARK   24  A    between atoms: _57  and  _60
REMARK   25  A    between atoms: _60  and  _61
REMARK   26  A    between atoms: _64  and  _66
REMARK   27  A    between atoms: _66  and  _67
REMARK   28  A    between atoms: _66  and  _69
REMARK   29  A    between atoms: _71  and  _73
REMARK   30  A    between atoms: _73  and  _74
REMARK   31  A    between atoms: _73  and  _76
REMARK   32  A    between atoms: _76  and  _77
REMARK   33  A    between atoms: _79  and  _81
REMARK   34  A    between atoms: _81  and  _82
REMARK   35  A    between atoms: _81  and  _84
REMARK   36  A    between atoms: _87  and  _89
REMARK   37  A    between atoms: _89  and  _90
REMARK   38  A    between atoms: _89  and  _92
REMARK   39  A    between atoms: _92  and  _93
REMARK   40  A    between atoms: _96  and  _98
REMARK   41  A    between atoms: _98  and  _99
REMARK   42  A    between atoms: _98  and  _101
REMARK   43  A    between atoms: _101  and  _102
REMARK   44  A    between atoms: _105  and  _107
REMARK   45  A    between atoms: _107  and  _108
REMARK   46  A    between atoms: _111  and  _113
REMARK   47  A    between atoms: _113  and  _114
REMARK   48  A    between atoms: _113  and  _116
REMARK   49  A    between atoms: _116  and  _117
REMARK   50  A    between atoms: _120  and  _122
REMARK   51  A    between atoms: _122  and  _123
REMARK   52  A    between atoms: _122  and  _125
REMARK   53  A    between atoms: _125  and  _126
REMARK   54  A    between atoms: _131  and  _132
REMARK   55  A    between atoms: _134  and  _136
REMARK   56  A    between atoms: _136  and  _137
REMARK   57  A    between atoms: _136  and  _139
REMARK   58  A    between atoms: _139  and  _140
REMARK   59  A    between atoms: _146  and  _148
REMARK   60  A    between atoms: _148  and  _149
REMARK   61  A    between atoms: _148  and  _151
REMARK   62  A    between atoms: _151  and  _152
REMARK   63  A    between atoms: _152  and  _153
REMARK   64  A    between atoms: _155  and  _157
REMARK   65  A    between atoms: _157  and  _158
REMARK   66  A    between atoms: _157  and  _160
REMARK   67  A    between atoms: _163  and  _165
REMARK   68  A    between atoms: _165  and  _166
REMARK   69  A    between atoms: _168  and  _170
REMARK   70  A    between atoms: _170  and  _171
REMARK   71  A    between atoms: _170  and  _173
REMARK   72  A    between atoms: _173  and  _174
REMARK   73  A    between atoms: _174  and  _175
REMARK   74  A    between atoms: _180  and  _182
REMARK   75  A    between atoms: _182  and  _183
REMARK   76  A    between atoms: _182  and  _185
REMARK   77  A    between atoms: _185  and  _186
REMARK   78  A    between atoms: _189  and  _191
REMARK   79  A    between atoms: _191  and  _192
REMARK   80  A    between atoms: _194  and  _196
REMARK   81  A    between atoms: _196  and  _197
REMARK   82  A    between atoms: _196  and  _199
REMARK   83  A    between atoms: _199  and  _200
REMARK   84  A    between atoms: _206  and  _208
REMARK   85  A    between atoms: _208  and  _209
REMARK   86  A    between atoms: _208  and  _211
REMARK   87  A    between atoms: _211  and  _212
REMARK   88  A    between atoms: _217  and  _218
REMARK   89  A    between atoms: _220  and  _222
REMARK   90  A    between atoms: _222  and  _223
REMARK   91  A    between atoms: _222  and  _225
REMARK   92  A    between atoms: _228  and  _230
REMARK   93  A    between atoms: _230  and  _231
REMARK   94  A    between atoms: _234  and  _236
REMARK   95  A    between atoms: _236  and  _237
REMARK   96  A    between atoms: _236  and  _239
REMARK   97  A    between atoms: _239  and  _240
REMARK                            x       y       z     vdW  Elec       q    Type
REMARK                         _______ _______ _______ _____ _____    ______ ____
ROOT
ATOM      1  CA  MET A   1       6.601 -23.412 -42.907  0.00  0.00    +0.134 C 
ENDROOT
BRANCH   1   2
ATOM      2  N   MET A   1       6.389 -23.292 -44.347  0.00  0.00    -0.239 NA
ATOM      3  H   MET A   1       5.957 -24.093 -44.851  0.00  0.00    +0.142 HD
ENDBRANCH   1   2
BRANCH   1   4
ATOM      4  C   MET A   1       8.084 -23.327 -42.506  0.00  0.00    +0.224 C 
ATOM      5  O   MET A   1       8.404 -22.897 -41.397  0.00  0.00    -0.287 OA
ENDBRANCH   1   4
BRANCH   1   6
ATOM      6  CB  MET A   1       5.980 -24.715 -42.388  0.00  0.00    +0.037 C 
BRANCH   6   7
ATOM      7  CG  MET A   1       5.939 -24.851 -40.864  0.00  0.00    +0.059 C 
BRANCH   7   8
ATOM      8  SD  MET A   1       5.726 -26.551 -40.300  0.00  0.00    -0.139 S 
ATOM      9  CE  MET A   1       7.321 -27.255 -40.717  0.00  0.00    +0.069 C 
ENDBRANCH   7   8
ENDBRANCH   6   7
ENDBRANCH   1   6
TORSDOF 5
REMARK  Name = ../refined-set-2016/4msn/4msn_pocket.pdb
REMARK  97 active torsions:
REMARK  status: ('A' for Active; 'I' for Inactive)
REMARK    1  A    between atoms: _1  and  _3
REMARK    2  A    between atoms: _3  and  _4
REMARK    3  A    between atoms: _3  and  _6
REMARK    4  A    between atoms: _6  and  _7
REMARK    5  A    between atoms: _12  and  _13
REMARK    6  A    between atoms: _15  and  _17
REMARK    7  A    between atoms: _17  and  _18
REMARK    8  A    between atoms: _17  and  _20
REMARK    9  A    between atoms: _20  and  _21
REMARK   10  A    between atoms: _26  and  _28
REMARK   11  A    between atoms: _28  and  _29
REMARK   12  A    between atoms: _28  and  _31
REMARK   13  A    between atoms: _31  and  _32
REMARK   14  A    between atoms: _37  and  _39
REMARK   15  A    between atoms: _39  and  _40
REMARK   16  A    between atoms: _39  and  _42
REMARK   17  A    between atoms: _42  and  _43
REMARK   18  A    between atoms: _46  and  _48
REMARK   19  A    between atoms: _48  and  _49
REMARK   20  A    between atoms: _48  and  _51
REMARK   21  A    between atoms: _51  and  _52
REMARK   22  A    between atoms: _55  and  _57
REMARK   23  A    between atoms: _57  and  _58
REMARK   24  A    between atoms: _57  and  _60
REMARK   25  A    between atoms: _60  and  _61
REMARK   26  A    between atoms: _64  and  _66
REMARK   27  A    between atoms: _66  and  _67
REMARK   28  A    between atoms: _66  and  _69
REMARK   29  A    between atoms: _71  and  _73
REMARK   30  A    between atoms: _73  and  _74
REMARK   31  A    between atoms: _73  and  _76
REMARK   32  A    between atoms: _76  and  _77
REMARK   33  A    between atoms: _79  and  _81
REMARK   34  A    between atoms: _81  and  _82
REMARK   35  A    between atoms: _81  and  _84
REMARK   36  A    between atoms: _87  and  _89
REMARK   37  A    between atoms: _89  and  _90
REMARK   38  A    between atoms: _89  and  _92
REMARK   39  A    between atoms: _92  and  _93
REMARK   40  A    between atoms: _96  and  _98
REMARK   41  A    between atoms: _98  and  _99
REMARK   42  A    between atoms: _98  and  _101
REMARK   43  A    between atoms: _101  and  _102
REMARK   44  A    between atoms: _105  and  _107
REMARK   45  A    between atoms: _107  and  _108
REMARK   46  A    between atoms: _111  and  _113
REMARK   47  A    between atoms: _113  and  _114
REMARK   48  A    between atoms: _113  and  _116
REMARK   49  A    between atoms: _116  and  _117
REMARK   50  A    between atoms: _120  and  _122
REMARK   51  A    between atoms: _122  and  _123
REMARK   52  A    between atoms: _122  and  _125
REMARK   53  A    between atoms: _125  and  _126
REMARK   54  A    between atoms: _131  and  _132
REMARK   55  A    between atoms: _134  and  _136
REMARK   56  A    between atoms: _136  and  _137
REMARK   57  A    between atoms: _136  and  _139
REMARK   58  A    between atoms: _139  and  _140
REMARK   59  A    between atoms: _146  and  _148
REMARK   60  A    between atoms: _148  and  _149
REMARK   61  A    between atoms: _148  and  _151
REMARK   62  A    between atoms: _151  and  _152
REMARK   63  A    between atoms: _152  and  _153
REMARK   64  A    between atoms: _155  and  _157
REMARK   65  A    between atoms: _157  and  _158
REMARK   66  A    between atoms: _157  and  _160
REMARK   67  A    between atoms: _163  and  _165
REMARK   68  A    between atoms: _165  and  _166
REMARK   69  A    between atoms: _168  and  _170
REMARK   70  A    between atoms: _170  and  _171
REMARK   71  A    between atoms: _170  and  _173
REMARK   72  A    between atoms: _173  and  _174
REMARK   73  A    between atoms: _174  and  _175
REMARK   74  A    between atoms: _180  and  _182
REMARK   75  A    between atoms: _182  and  _183
REMARK   76  A    between atoms: _182  and  _185
REMARK   77  A    between atoms: _185  and  _186
REMARK   78  A    between atoms: _189  and  _191
REMARK   79  A    between atoms: _191  and  _192
REMARK   80  A    between atoms: _194  and  _196
REMARK   81  A    between atoms: _196  and  _197
REMARK   82  A    between atoms: _196  and  _199
REMARK   83  A    between atoms: _199  and  _200
REMARK   84  A    between atoms: _206  and  _208
REMARK   85  A    between atoms: _208  and  _209
REMARK   86  A    between atoms: _208  and  _211
REMARK   87  A    between atoms: _211  and  _212
REMARK   88  A    between atoms: _217  and  _218
REMARK   89  A    between atoms: _220  and  _222
REMARK   90  A    between atoms: _222  and  _223
REMARK   91  A    between atoms: _222  and  _225
REMARK   92  A    between atoms: _228  and  _230
REMARK   93  A    between atoms: _230  and  _231
REMARK   94  A    between atoms: _234  and  _236
REMARK   95  A    between atoms: _236  and  _237
REMARK   96  A    between atoms: _236  and  _239
REMARK   97  A    between atoms: _239  and  _240
REMARK                            x       y       z     vdW  Elec       q    Type
REMARK                         _______ _______ _______ _____ _____    ______ ____
ROOT
ATOM      1  CA  VAL A   1       2.623 -18.637 -39.555  0.00  0.00    +0.133 C 
ENDROOT
BRANCH   1   2
ATOM      2  CB  VAL A   1       3.790 -18.145 -38.636  0.00  0.00    +0.023 C 
ATOM      3  CG2 VAL A   1       3.732 -18.810 -37.273  0.00  0.00    +0.002 C 
ATOM      4  CG1 VAL A   1       5.141 -18.436 -39.290  0.00  0.00    +0.002 C 
ENDBRANCH   1   2
BRANCH   1   5
ATOM      5  N   VAL A   1       2.561 -17.900 -40.830  0.00  0.00    -0.239 NA
ATOM      6  H   VAL A   1       3.168 -17.066 -40.966  0.00  0.00    +0.142 HD
ENDBRANCH   1   5
BRANCH   1   7
ATOM      7  C   VAL A   1       1.270 -18.752 -38.804  0.00  0.00    +0.224 C 
ATOM      8  O   VAL A   1       0.878 -19.859 -38.431  0.00  0.00    -0.287 OA
ENDBRANCH   1   7
TORSDOF 3
REMARK  Name = ../refined-set-2016/4msn/4msn_pocket.pdb
REMARK  97 active torsions:
REMARK  status: ('A' for Active; 'I' for Inactive)
REMARK    1  A    between atoms: _1  and  _3
REMARK    2  A    between atoms: _3  and  _4
REMARK    3  A    between atoms: _3  and  _6
REMARK    4  A    between atoms: _6  and  _7
REMARK    5  A    between atoms: _12  and  _13
REMARK    6  A    between atoms: _15  and  _17
REMARK    7  A    between atoms: _17  and  _18
REMARK    8  A    between atoms: _17  and  _20
REMARK    9  A    between atoms: _20  and  _21
REMARK   10  A    between atoms: _26  and  _28
REMARK   11  A    between atoms: _28  and  _29
REMARK   12  A    between atoms: _28  and  _31
REMARK   13  A    between atoms: _31  and  _32
REMARK   14  A    between atoms: _37  and  _39
REMARK   15  A    between atoms: _39  and  _40
REMARK   16  A    between atoms: _39  and  _42
REMARK   17  A    between atoms: _42  and  _43
REMARK   18  A    between atoms: _46  and  _48
REMARK   19  A    between atoms: _48  and  _49
REMARK   20  A    between atoms: _48  and  _51
REMARK   21  A    between atoms: _51  and  _52
REMARK   22  A    between atoms: _55  and  _57
REMARK   23  A    between atoms: _57  and  _58
REMARK   24  A    between atoms: _57  and  _60
REMARK   25  A    between atoms: _60  and  _61
REMARK   26  A    between atoms: _64  and  _66
REMARK   27  A    between atoms: _66  and  _67
REMARK   28  A    between atoms: _66  and  _69
REMARK   29  A    between atoms: _71  and  _73
REMARK   30  A    between atoms: _73  and  _74
REMARK   31  A    between atoms: _73  and  _76
REMARK   32  A    between atoms: _76  and  _77
REMARK   33  A    between atoms: _79  and  _81
REMARK   34  A    between atoms: _81  and  _82
REMARK   35  A    between atoms: _81  and  _84
REMARK   36  A    between atoms: _87  and  _89
REMARK   37  A    between atoms: _89  and  _90
REMARK   38  A    between atoms: _89  and  _92
REMARK   39  A    between atoms: _92  and  _93
REMARK   40  A    between atoms: _96  and  _98
REMARK   41  A    between atoms: _98  and  _99
REMARK   42  A    between atoms: _98  and  _101
REMARK   43  A    between atoms: _101  and  _102
REMARK   44  A    between atoms: _105  and  _107
REMARK   45  A    between atoms: _107  and  _108
REMARK   46  A    between atoms: _111  and  _113
REMARK   47  A    between atoms: _113  and  _114
REMARK   48  A    between atoms: _113  and  _116
REMARK   49  A    between atoms: _116  and  _117
REMARK   50  A    between atoms: _120  and  _122
REMARK   51  A    between atoms: _122  and  _123
REMARK   52  A    between atoms: _122  and  _125
REMARK   53  A    between atoms: _125  and  _126
REMARK   54  A    between atoms: _131  and  _132
REMARK   55  A    between atoms: _134  and  _136
REMARK   56  A    between atoms: _136  and  _137
REMARK   57  A    between atoms: _136  and  _139
REMARK   58  A    between atoms: _139  and  _140
REMARK   59  A    between atoms: _146  and  _148
REMARK   60  A    between atoms: _148  and  _149
REMARK   61  A    between atoms: _148  and  _151
REMARK   62  A    between atoms: _151  and  _152
REMARK   63  A    between atoms: _152  and  _153
REMARK   64  A    between atoms: _155  and  _157
REMARK   65  A    between atoms: _157  and  _158
REMARK   66  A    between atoms: _157  and  _160
REMARK   67  A    between atoms: _163  and  _165
REMARK   68  A    between atoms: _165  and  _166
REMARK   69  A    between atoms: _168  and  _170
REMARK   70  A    between atoms: _170  and  _171
REMARK   71  A    between atoms: _170  and  _173
REMARK   72  A    between atoms: _173  and  _174
REMARK   73  A    between atoms: _174  and  _175
REMARK   74  A    between atoms: _180  and  _182
REMARK   75  A    between atoms: _182  and  _183
REMARK   76  A    between atoms: _182  and  _185
REMARK   77  A    between atoms: _185  and  _186
REMARK   78  A    between atoms: _189  and  _191
REMARK   79  A    between atoms: _191  and  _192
REMARK   80  A    between atoms: _194  and  _196
REMARK   81  A    between atoms: _196  and  _197
REMARK   82  A    between atoms: _196  and  _199
REMARK   83  A    between atoms: _199  and  _200
REMARK   84  A    between atoms: _206  and  _208
REMARK   85  A    between atoms: _208  and  _209
REMARK   86  A    between atoms: _208  and  _211
REMARK   87  A    between atoms: _211  and  _212
REMARK   88  A    between atoms: _217  and  _218
REMARK   89  A    between atoms: _220  and  _222
REMARK   90  A    between atoms: _222  and  _223
REMARK   91  A    between atoms: _222  and  _225
REMARK   92  A    between atoms: _228  and  _230
REMARK   93  A    between atoms: _230  and  _231
REMARK   94  A    between atoms: _234  and  _236
REMARK   95  A    between atoms: _236  and  _237
REMARK   96  A    between atoms: _236  and  _239
REMARK   97  A    between atoms: _239  and  _240
REMARK                            x       y       z     vdW  Elec       q    Type
REMARK                         _______ _______ _______ _____ _____    ______ ____
ROOT
ATOM      1  CA  GLY A   4      -4.448 -25.558 -39.732  0.00  0.00    +0.176 C 
ENDROOT
BRANCH   1   2
ATOM      2  C   GLY A   4      -3.861 -26.717 -38.965  0.00  0.00    +0.243 C 
ATOM      3  N   PHE A   5      -2.725 -26.492 -38.303  0.00  0.00    -0.297 N 
ATOM      4  H   PHE A   5      -2.282 -25.553 -38.358  0.00  0.00    +0.150 HD
ATOM      5  O   GLY A   4      -4.428 -27.800 -38.965  0.00  0.00    -0.273 OA
BRANCH   3   6
ATOM      6  CA  PHE A   5      -2.090 -27.535 -37.504  0.00  0.00    +0.153 C 
BRANCH   6   7
ATOM      7  C   PHE A   5      -2.920 -27.889 -36.274  0.00  0.00    +0.241 C 
ATOM      8  N   TYR A   6      -3.591 -26.888 -35.700  0.00  0.00    -0.298 N 
ATOM      9  H   TYR A   6      -3.480 -25.928 -36.083  0.00  0.00    +0.150 HD
ATOM     10  O   PHE A   5      -2.925 -29.044 -35.846  0.00  0.00    -0.273 OA
BRANCH   8  11
ATOM     11  CA  TYR A   6      -4.482 -27.091 -34.545  0.00  0.00    +0.141 C 
BRANCH  11  12
ATOM     12  C   TYR A   6      -5.745 -27.869 -34.950  0.00  0.00    +0.227 C 
ATOM     13  O   TYR A   6      -6.145 -28.812 -34.264  0.00  0.00    -0.286 OA
ENDBRANCH  11  12
BRANCH  11  14
ATOM     14  CB  TYR A   6      -4.851 -25.744 -33.892  0.00  0.00    +0.054 C 
BRANCH  14  15
ATOM     15  CG  TYR A   6      -3.875 -25.196 -32.842  0.00  0.00    -0.020 A 
ATOM     16  CD2 TYR A   6      -4.294 -24.984 -31.526  0.00  0.00    -0.001 A 
ATOM     17  CE2 TYR A   6      -3.430 -24.475 -30.558  0.00  0.00    +0.036 A 
ATOM     18  CZ  TYR A   6      -2.115 -24.167 -30.898  0.00  0.00    +0.134 A 
ATOM     19  CE1 TYR A   6      -1.672 -24.352 -32.206  0.00  0.00    +0.036 A 
ATOM     20  CD1 TYR A   6      -2.548 -24.859 -33.168  0.00  0.00    -0.001 A 
BRANCH  18  21
ATOM     21  OH  TYR A   6      -1.273 -23.654 -29.927  0.00  0.00    -0.506 OA
ATOM     22  HH  TYR A   6      -0.380 -23.488 -30.321  0.00  0.00    +0.292 HD
ENDBRANCH  18  21
ENDBRANCH  14  15
ENDBRANCH  11  14
ENDBRANCH   8  11
ENDBRANCH   6   7
BRANCH   6  23
ATOM     23  CB  PHE A   5      -0.668 -27.150 -37.075  0.00  0.00    +0.055 C 
BRANCH  23  24
ATOM     24  CG  PHE A   5      -0.054 -28.130 -36.113  0.00  0.00    -0.020 A 
ATOM     25  CD2 PHE A   5      -0.123 -27.915 -34.737  0.00  0.00    -0.004 A 
ATOM     26  CE2 PHE A   5       0.417 -28.836 -33.840  0.00  0.00    -0.000 A 
ATOM     27  CZ  PHE A   5       1.035 -29.994 -34.317  0.00  0.00    -0.000 A 
ATOM     28  CE1 PHE A   5       1.101 -30.223 -35.685  0.00  0.00    -0.000 A 
ATOM     29  CD1 PHE A   5       0.547 -29.292 -36.577  0.00  0.00    -0.004 A 
ENDBRANCH  23  24
ENDBRANCH   6  23
ENDBRANCH   3   6
ENDBRANCH   1   2
BRANCH   1  32
ATOM     30  C   LEU A   3      -4.916 -24.055 -37.848  0.00  0.00    +0.241 C 
ATOM     31  O   LEU A   3      -5.621 -24.877 -37.257  0.00  0.00    -0.273 OA
ATOM     32  N   GLY A   4      -4.316 -24.295 -39.015  0.00  0.00    -0.295 N 
ATOM     33  H   GLY A   4      -3.727 -23.547 -39.433  0.00  0.00    +0.150 HD
BRANCH  30  34
ATOM     34  CA  LEU A   3      -4.681 -22.672 -37.253  0.00  0.00    +0.149 C 
BRANCH  34  37
ATOM     35  C   GLN A   2      -2.360 -23.154 -36.690  0.00  0.00    +0.241 C 
ATOM     36  O   GLN A   2      -2.682 -24.204 -36.137  0.00  0.00    -0.273 OA
ATOM     37  N   LEU A   3      -3.257 -22.325 -37.218  0.00  0.00    -0.297 N 
ATOM     38  H   LEU A   3      -2.943 -21.416 -37.613  0.00  0.00    +0.150 HD
BRANCH  35  39
ATOM     39  CA  GLN A   2      -0.878 -22.786 -36.834  0.00  0.00    +0.149 C 
BRANCH  39  41
ATOM     40  C   GLY A   1      -0.629 -23.077 -39.235  0.00  0.00    +0.240 C 
ATOM     41  N   GLN A   2      -0.560 -22.290 -38.165  0.00  0.00    -0.297 N 
ATOM     42  H   GLN A   2      -0.272 -21.297 -38.282  0.00  0.00    +0.150 HD
ATOM     43  O   GLY A   1      -0.945 -24.271 -39.175  0.00  0.00    -0.274 OA
BRANCH  40  44
ATOM     44  CA  GLY A   1      -0.317 -22.414 -40.564  0.00  0.00    +0.169 C 
BRANCH  44  45
ATOM     45  N   GLY A   1      -0.924 -21.093 -40.683  0.00  0.00    -0.236 NA
ATOM     46  H   GLY A   1      -0.313 -20.266 -40.840  0.00  0.00    +0.142 HD
ENDBRANCH  44  45
ENDBRANCH  40  44
ENDBRANCH  39  41
BRANCH  39  47
ATOM     47  CB  GLN A   2      -0.407 -21.790 -35.769  0.00  0.00    +0.039 C 
BRANCH  47  48
ATOM     48  CG  GLN A   2       1.120 -21.811 -35.564  0.00  0.00    +0.087 C 
BRANCH  48  49
ATOM     49  CD  GLN A   2       1.591 -23.089 -34.896  0.00  0.00    +0.219 C 
ATOM     50  OE1 GLN A   2       1.338 -23.308 -33.717  0.00  0.00    -0.275 OA
ATOM     51  NE2 GLN A   2       2.264 -23.950 -35.653  0.00  0.00    -0.329 N 
ATOM     52 HE21 GLN A   2       2.597 -24.848 -35.248  0.00  0.00    +0.145 HD
ATOM     53 HE22 GLN A   2       2.458 -23.725 -36.650  0.00  0.00    +0.145 HD
ENDBRANCH  48  49
ENDBRANCH  47  48
ENDBRANCH  39  47
ENDBRANCH  35  39
ENDBRANCH  34  37
BRANCH  34  54
ATOM     54  CB  LEU A   3      -5.494 -21.634 -38.037  0.00  0.00    +0.029 C 
BRANCH  54  55
ATOM     55  CG  LEU A   3      -7.000 -21.860 -38.249  0.00  0.00    +0.002 C 
ATOM     56  CD2 LEU A   3      -7.769 -21.790 -36.941  0.00  0.00    +0.000 C 
ATOM     57  CD1 LEU A   3      -7.559 -20.846 -39.229  0.00  0.00    +0.000 C 
ENDBRANCH  54  55
ENDBRANCH  34  54
ENDBRANCH  30  34
ENDBRANCH   1  32
TORSDOF 22
REMARK  Name = ../refined-set-2016/4msn/4msn_pocket.pdb
REMARK  97 active torsions:
REMARK  status: ('A' for Active; 'I' for Inactive)
REMARK    1  A    between atoms: _1  and  _3
REMARK    2  A    between atoms: _3  and  _4
REMARK    3  A    between atoms: _3  and  _6
REMARK    4  A    between atoms: _6  and  _7
REMARK    5  A    between atoms: _12  and  _13
REMARK    6  A    between atoms: _15  and  _17
REMARK    7  A    between atoms: _17  and  _18
REMARK    8  A    between atoms: _17  and  _20
REMARK    9  A    between atoms: _20  and  _21
REMARK   10  A    between atoms: _26  and  _28
REMARK   11  A    between atoms: _28  and  _29
REMARK   12  A    between atoms: _28  and  _31
REMARK   13  A    between atoms: _31  and  _32
REMARK   14  A    between atoms: _37  and  _39
REMARK   15  A    between atoms: _39  and  _40
REMARK   16  A    between atoms: _39  and  _42
REMARK   17  A    between atoms: _42  and  _43
REMARK   18  A    between atoms: _46  and  _48
REMARK   19  A    between atoms: _48  and  _49
REMARK   20  A    between atoms: _48  and  _51
REMARK   21  A    between atoms: _51  and  _52
REMARK   22  A    between atoms: _55  and  _57
REMARK   23  A    between atoms: _57  and  _58
REMARK   24  A    between atoms: _57  and  _60
REMARK   25  A    between atoms: _60  and  _61
REMARK   26  A    between atoms: _64  and  _66
REMARK   27  A    between atoms: _66  and  _67
REMARK   28  A    between atoms: _66  and  _69
REMARK   29  A    between atoms: _71  and  _73
REMARK   30  A    between atoms: _73  and  _74
REMARK   31  A    between atoms: _73  and  _76
REMARK   32  A    between atoms: _76  and  _77
REMARK   33  A    between atoms: _79  and  _81
REMARK   34  A    between atoms: _81  and  _82
REMARK   35  A    between atoms: _81  and  _84
REMARK   36  A    between atoms: _87  and  _89
REMARK   37  A    between atoms: _89  and  _90
REMARK   38  A    between atoms: _89  and  _92
REMARK   39  A    between atoms: _92  and  _93
REMARK   40  A    between atoms: _96  and  _98
REMARK   41  A    between atoms: _98  and  _99
REMARK   42  A    between atoms: _98  and  _101
REMARK   43  A    between atoms: _101  and  _102
REMARK   44  A    between atoms: _105  and  _107
REMARK   45  A    between atoms: _107  and  _108
REMARK   46  A    between atoms: _111  and  _113
REMARK   47  A    between atoms: _113  and  _114
REMARK   48  A    between atoms: _113  and  _116
REMARK   49  A    between atoms: _116  and  _117
REMARK   50  A    between atoms: _120  and  _122
REMARK   51  A    between atoms: _122  and  _123
REMARK   52  A    between atoms: _122  and  _125
REMARK   53  A    between atoms: _125  and  _126
REMARK   54  A    between atoms: _131  and  _132
REMARK   55  A    between atoms: _134  and  _136
REMARK   56  A    between atoms: _136  and  _137
REMARK   57  A    between atoms: _136  and  _139
REMARK   58  A    between atoms: _139  and  _140
REMARK   59  A    between atoms: _146  and  _148
REMARK   60  A    between atoms: _148  and  _149
REMARK   61  A    between atoms: _148  and  _151
REMARK   62  A    between atoms: _151  and  _152
REMARK   63  A    between atoms: _152  and  _153
REMARK   64  A    between atoms: _155  and  _157
REMARK   65  A    between atoms: _157  and  _158
REMARK   66  A    between atoms: _157  and  _160
REMARK   67  A    between atoms: _163  and  _165
REMARK   68  A    between atoms: _165  and  _166
REMARK   69  A    between atoms: _168  and  _170
REMARK   70  A    between atoms: _170  and  _171
REMARK   71  A    between atoms: _170  and  _173
REMARK   72  A    between atoms: _173  and  _174
REMARK   73  A    between atoms: _174  and  _175
REMARK   74  A    between atoms: _180  and  _182
REMARK   75  A    between atoms: _182  and  _183
REMARK   76  A    between atoms: _182  and  _185
REMARK   77  A    between atoms: _185  and  _186
REMARK   78  A    between atoms: _189  and  _191
REMARK   79  A    between atoms: _191  and  _192
REMARK   80  A    between atoms: _194  and  _196
REMARK   81  A    between atoms: _196  and  _197
REMARK   82  A    between atoms: _196  and  _199
REMARK   83  A    between atoms: _199  and  _200
REMARK   84  A    between atoms: _206  and  _208
REMARK   85  A    between atoms: _208  and  _209
REMARK   86  A    between atoms: _208  and  _211
REMARK   87  A    between atoms: _211  and  _212
REMARK   88  A    between atoms: _217  and  _218
REMARK   89  A    between atoms: _220  and  _222
REMARK   90  A    between atoms: _222  and  _223
REMARK   91  A    between atoms: _222  and  _225
REMARK   92  A    between atoms: _228  and  _230
REMARK   93  A    between atoms: _230  and  _231
REMARK   94  A    between atoms: _234  and  _236
REMARK   95  A    between atoms: _236  and  _237
REMARK   96  A    between atoms: _236  and  _239
REMARK   97  A    between atoms: _239  and  _240
REMARK                            x       y       z     vdW  Elec       q    Type
REMARK                         _______ _______ _______ _____ _____    ______ ____
ROOT
ATOM      1  C   VAL A   1      -3.989 -32.267 -34.089  0.00  0.00    +0.238 C 
ATOM      2  O   VAL A   1      -4.467 -33.214 -33.466  0.00  0.00    -0.274 OA
ATOM      3  N   ALA A   2      -3.810 -31.063 -33.545  0.00  0.00    -0.298 N 
ATOM      4  H   ALA A   2      -3.643 -30.248 -34.168  0.00  0.00    +0.150 HD
ENDROOT
BRANCH   3   5
ATOM      5  CA  ALA A   2      -3.842 -30.854 -32.092  0.00  0.00    +0.137 C 
ATOM      6  CB  ALA A   2      -3.279 -29.469 -31.718  0.00  0.00    +0.030 C 
BRANCH   5   7
ATOM      7  C   ALA A   2      -5.218 -31.081 -31.458  0.00  0.00    +0.227 C 
ATOM      8  O   ALA A   2      -5.357 -31.925 -30.561  0.00  0.00    -0.286 OA
ENDBRANCH   5   7
ENDBRANCH   3   5
BRANCH   1   9
ATOM      9  CA  VAL A   1      -3.584 -32.434 -35.566  0.00  0.00    +0.145 C 
BRANCH   9  10
ATOM     10  CB  VAL A   1      -2.025 -32.242 -35.699  0.00  0.00    +0.025 C 
ATOM     11  CG2 VAL A   1      -1.289 -33.206 -34.797  0.00  0.00    +0.002 C 
ATOM     12  CG1 VAL A   1      -1.570 -32.441 -37.127  0.00  0.00    +0.002 C 
ENDBRANCH   9  10
BRANCH   9  13
ATOM     13  N   VAL A   1      -4.317 -31.554 -36.480  0.00  0.00    -0.238 NA
ATOM     14  H   VAL A   1      -4.186 -30.526 -36.396  0.00  0.00    +0.142 HD
ENDBRANCH   9  13
ENDBRANCH   1   9
TORSDOF 5
REMARK  Name = ../refined-set-2016/4msn/4msn_pocket.pdb
REMARK  97 active torsions:
REMARK  status: ('A' for Active; 'I' for Inactive)
REMARK    1  A    between atoms: _1  and  _3
REMARK    2  A    between atoms: _3  and  _4
REMARK    3  A    between atoms: _3  and  _6
REMARK    4  A    between atoms: _6  and  _7
REMARK    5  A    between atoms: _12  and  _13
REMARK    6  A    between atoms: _15  and  _17
REMARK    7  A    between atoms: _17  and  _18
REMARK    8  A    between atoms: _17  and  _20
REMARK    9  A    between atoms: _20  and  _21
REMARK   10  A    between atoms: _26  and  _28
REMARK   11  A    between atoms: _28  and  _29
REMARK   12  A    between atoms: _28  and  _31
REMARK   13  A    between atoms: _31  and  _32
REMARK   14  A    between atoms: _37  and  _39
REMARK   15  A    between atoms: _39  and  _40
REMARK   16  A    between atoms: _39  and  _42
REMARK   17  A    between atoms: _42  and  _43
REMARK   18  A    between atoms: _46  and  _48
REMARK   19  A    between atoms: _48  and  _49
REMARK   20  A    between atoms: _48  and  _51
REMARK   21  A    between atoms: _51  and  _52
REMARK   22  A    between atoms: _55  and  _57
REMARK   23  A    between atoms: _57  and  _58
REMARK   24  A    between atoms: _57  and  _60
REMARK   25  A    between atoms: _60  and  _61
REMARK   26  A    between atoms: _64  and  _66
REMARK   27  A    between atoms: _66  and  _67
REMARK   28  A    between atoms: _66  and  _69
REMARK   29  A    between atoms: _71  and  _73
REMARK   30  A    between atoms: _73  and  _74
REMARK   31  A    between atoms: _73  and  _76
REMARK   32  A    between atoms: _76  and  _77
REMARK   33  A    between atoms: _79  and  _81
REMARK   34  A    between atoms: _81  and  _82
REMARK   35  A    between atoms: _81  and  _84
REMARK   36  A    between atoms: _87  and  _89
REMARK   37  A    between atoms: _89  and  _90
REMARK   38  A    between atoms: _89  and  _92
REMARK   39  A    between atoms: _92  and  _93
REMARK   40  A    between atoms: _96  and  _98
REMARK   41  A    between atoms: _98  and  _99
REMARK   42  A    between atoms: _98  and  _101
REMARK   43  A    between atoms: _101  and  _102
REMARK   44  A    between atoms: _105  and  _107
REMARK   45  A    between atoms: _107  and  _108
REMARK   46  A    between atoms: _111  and  _113
REMARK   47  A    between atoms: _113  and  _114
REMARK   48  A    between atoms: _113  and  _116
REMARK   49  A    between atoms: _116  and  _117
REMARK   50  A    between atoms: _120  and  _122
REMARK   51  A    between atoms: _122  and  _123
REMARK   52  A    between atoms: _122  and  _125
REMARK   53  A    between atoms: _125  and  _126
REMARK   54  A    between atoms: _131  and  _132
REMARK   55  A    between atoms: _134  and  _136
REMARK   56  A    between atoms: _136  and  _137
REMARK   57  A    between atoms: _136  and  _139
REMARK   58  A    between atoms: _139  and  _140
REMARK   59  A    between atoms: _146  and  _148
REMARK   60  A    between atoms: _148  and  _149
REMARK   61  A    between atoms: _148  and  _151
REMARK   62  A    between atoms: _151  and  _152
REMARK   63  A    between atoms: _152  and  _153
REMARK   64  A    between atoms: _155  and  _157
REMARK   65  A    between atoms: _157  and  _158
REMARK   66  A    between atoms: _157  and  _160
REMARK   67  A    between atoms: _163  and  _165
REMARK   68  A    between atoms: _165  and  _166
REMARK   69  A    between atoms: _168  and  _170
REMARK   70  A    between atoms: _170  and  _171
REMARK   71  A    between atoms: _170  and  _173
REMARK   72  A    between atoms: _173  and  _174
REMARK   73  A    between atoms: _174  and  _175
REMARK   74  A    between atoms: _180  and  _182
REMARK   75  A    between atoms: _182  and  _183
REMARK   76  A    between atoms: _182  and  _185
REMARK   77  A    between atoms: _185  and  _186
REMARK   78  A    between atoms: _189  and  _191
REMARK   79  A    between atoms: _191  and  _192
REMARK   80  A    between atoms: _194  and  _196
REMARK   81  A    between atoms: _196  and  _197
REMARK   82  A    between atoms: _196  and  _199
REMARK   83  A    between atoms: _199  and  _200
REMARK   84  A    between atoms: _206  and  _208
REMARK   85  A    between atoms: _208  and  _209
REMARK   86  A    between atoms: _208  and  _211
REMARK   87  A    between atoms: _211  and  _212
REMARK   88  A    between atoms: _217  and  _218
REMARK   89  A    between atoms: _220  and  _222
REMARK   90  A    between atoms: _222  and  _223
REMARK   91  A    between atoms: _222  and  _225
REMARK   92  A    between atoms: _228  and  _230
REMARK   93  A    between atoms: _230  and  _231
REMARK   94  A    between atoms: _234  and  _236
REMARK   95  A    between atoms: _236  and  _237
REMARK   96  A    between atoms: _236  and  _239
REMARK   97  A    between atoms: _239  and  _240
REMARK                            x       y       z     vdW  Elec       q    Type
REMARK                         _______ _______ _______ _____ _____    ______ ____
ROOT
ATOM      1  CG  TRP A   1      -2.395 -19.668 -32.917  0.00  0.00    -0.002 A 
ATOM      2  CD1 TRP A   1      -2.136 -20.753 -32.125  0.00  0.00    +0.068 A 
ATOM      3  NE1 TRP A   1      -0.783 -20.846 -31.879  0.00  0.00    -0.352 N 
ATOM      4  HE1 TRP A   1      -0.322 -21.587 -31.314  0.00  0.00    +0.166 HD
ATOM      5  CE2 TRP A   1      -0.143 -19.803 -32.499  0.00  0.00    +0.056 A 
ATOM      6  CZ2 TRP A   1       1.220 -19.467 -32.529  0.00  0.00    +0.017 A 
ATOM      7  CH2 TRP A   1       1.586 -18.363 -33.251  0.00  0.00    +0.001 A 
ATOM      8  CZ3 TRP A   1       0.637 -17.587 -33.929  0.00  0.00    +0.000 A 
ATOM      9  CE3 TRP A   1      -0.722 -17.916 -33.896  0.00  0.00    +0.001 A 
ATOM     10  CD2 TRP A   1      -1.125 -19.043 -33.170  0.00  0.00    +0.013 A 
ENDROOT
BRANCH   1  11
ATOM     11  CB  TRP A   1      -3.750 -19.228 -33.432  0.00  0.00    +0.053 C 
BRANCH  11  12
ATOM     12  CA  TRP A   1      -4.214 -17.855 -32.937  0.00  0.00    +0.137 C 
BRANCH  12  13
ATOM     13  N   TRP A   1      -4.742 -17.921 -31.573  0.00  0.00    -0.239 NA
ATOM     14  H   TRP A   1      -4.911 -18.849 -31.135  0.00  0.00    +0.142 HD
ENDBRANCH  12  13
BRANCH  12  15
ATOM     15  C   TRP A   1      -5.233 -17.250 -33.910  0.00  0.00    +0.224 C 
ATOM     16  O   TRP A   1      -4.851 -16.569 -34.859  0.00  0.00    -0.287 OA
ENDBRANCH  12  15
ENDBRANCH  11  12
ENDBRANCH   1  11
TORSDOF 4
REMARK  Name = ../refined-set-2016/4msn/4msn_pocket.pdb
REMARK  97 active torsions:
REMARK  status: ('A' for Active; 'I' for Inactive)
REMARK    1  A    between atoms: _1  and  _3
REMARK    2  A    between atoms: _3  and  _4
REMARK    3  A    between atoms: _3  and  _6
REMARK    4  A    between atoms: _6  and  _7
REMARK    5  A    between atoms: _12  and  _13
REMARK    6  A    between atoms: _15  and  _17
REMARK    7  A    between atoms: _17  and  _18
REMARK    8  A    between atoms: _17  and  _20
REMARK    9  A    between atoms: _20  and  _21
REMARK   10  A    between atoms: _26  and  _28
REMARK   11  A    between atoms: _28  and  _29
REMARK   12  A    between atoms: _28  and  _31
REMARK   13  A    between atoms: _31  and  _32
REMARK   14  A    between atoms: _37  and  _39
REMARK   15  A    between atoms: _39  and  _40
REMARK   16  A    between atoms: _39  and  _42
REMARK   17  A    between atoms: _42  and  _43
REMARK   18  A    between atoms: _46  and  _48
REMARK   19  A    between atoms: _48  and  _49
REMARK   20  A    between atoms: _48  and  _51
REMARK   21  A    between atoms: _51  and  _52
REMARK   22  A    between atoms: _55  and  _57
REMARK   23  A    between atoms: _57  and  _58
REMARK   24  A    between atoms: _57  and  _60
REMARK   25  A    between atoms: _60  and  _61
REMARK   26  A    between atoms: _64  and  _66
REMARK   27  A    between atoms: _66  and  _67
REMARK   28  A    between atoms: _66  and  _69
REMARK   29  A    between atoms: _71  and  _73
REMARK   30  A    between atoms: _73  and  _74
REMARK   31  A    between atoms: _73  and  _76
REMARK   32  A    between atoms: _76  and  _77
REMARK   33  A    between atoms: _79  and  _81
REMARK   34  A    between atoms: _81  and  _82
REMARK   35  A    between atoms: _81  and  _84
REMARK   36  A    between atoms: _87  and  _89
REMARK   37  A    between atoms: _89  and  _90
REMARK   38  A    between atoms: _89  and  _92
REMARK   39  A    between atoms: _92  and  _93
REMARK   40  A    between atoms: _96  and  _98
REMARK   41  A    between atoms: _98  and  _99
REMARK   42  A    between atoms: _98  and  _101
REMARK   43  A    between atoms: _101  and  _102
REMARK   44  A    between atoms: _105  and  _107
REMARK   45  A    between atoms: _107  and  _108
REMARK   46  A    between atoms: _111  and  _113
REMARK   47  A    between atoms: _113  and  _114
REMARK   48  A    between atoms: _113  and  _116
REMARK   49  A    between atoms: _116  and  _117
REMARK   50  A    between atoms: _120  and  _122
REMARK   51  A    between atoms: _122  and  _123
REMARK   52  A    between atoms: _122  and  _125
REMARK   53  A    between atoms: _125  and  _126
REMARK   54  A    between atoms: _131  and  _132
REMARK   55  A    between atoms: _134  and  _136
REMARK   56  A    between atoms: _136  and  _137
REMARK   57  A    between atoms: _136  and  _139
REMARK   58  A    between atoms: _139  and  _140
REMARK   59  A    between atoms: _146  and  _148
REMARK   60  A    between atoms: _148  and  _149
REMARK   61  A    between atoms: _148  and  _151
REMARK   62  A    between atoms: _151  and  _152
REMARK   63  A    between atoms: _152  and  _153
REMARK   64  A    between atoms: _155  and  _157
REMARK   65  A    between atoms: _157  and  _158
REMARK   66  A    between atoms: _157  and  _160
REMARK   67  A    between atoms: _163  and  _165
REMARK   68  A    between atoms: _165  and  _166
REMARK   69  A    between atoms: _168  and  _170
REMARK   70  A    between atoms: _170  and  _171
REMARK   71  A    between atoms: _170  and  _173
REMARK   72  A    between atoms: _173  and  _174
REMARK   73  A    between atoms: _174  and  _175
REMARK   74  A    between atoms: _180  and  _182
REMARK   75  A    between atoms: _182  and  _183
REMARK   76  A    between atoms: _182  and  _185
REMARK   77  A    between atoms: _185  and  _186
REMARK   78  A    between atoms: _189  and  _191
REMARK   79  A    between atoms: _191  and  _192
REMARK   80  A    between atoms: _194  and  _196
REMARK   81  A    between atoms: _196  and  _197
REMARK   82  A    between atoms: _196  and  _199
REMARK   83  A    between atoms: _199  and  _200
REMARK   84  A    between atoms: _206  and  _208
REMARK   85  A    between atoms: _208  and  _209
REMARK   86  A    between atoms: _208  and  _211
REMARK   87  A    between atoms: _211  and  _212
REMARK   88  A    between atoms: _217  and  _218
REMARK   89  A    between atoms: _220  and  _222
REMARK   90  A    between atoms: _222  and  _223
REMARK   91  A    between atoms: _222  and  _225
REMARK   92  A    between atoms: _228  and  _230
REMARK   93  A    between atoms: _230  and  _231
REMARK   94  A    between atoms: _234  and  _236
REMARK   95  A    between atoms: _236  and  _237
REMARK   96  A    between atoms: _236  and  _239
REMARK   97  A    between atoms: _239  and  _240
REMARK                            x       y       z     vdW  Elec       q    Type
REMARK                         _______ _______ _______ _____ _____    ______ ____
ROOT
ATOM      1  O   HOH     1       8.502 -32.636 -31.321  0.00  0.00    +0.000 OA
ENDROOT
TORSDOF 0
REMARK  Name = ../refined-set-2016/4msn/4msn_pocket.pdb
REMARK  97 active torsions:
REMARK  status: ('A' for Active; 'I' for Inactive)
REMARK    1  A    between atoms: _1  and  _3
REMARK    2  A    between atoms: _3  and  _4
REMARK    3  A    between atoms: _3  and  _6
REMARK    4  A    between atoms: _6  and  _7
REMARK    5  A    between atoms: _12  and  _13
REMARK    6  A    between atoms: _15  and  _17
REMARK    7  A    between atoms: _17  and  _18
REMARK    8  A    between atoms: _17  and  _20
REMARK    9  A    between atoms: _20  and  _21
REMARK   10  A    between atoms: _26  and  _28
REMARK   11  A    between atoms: _28  and  _29
REMARK   12  A    between atoms: _28  and  _31
REMARK   13  A    between atoms: _31  and  _32
REMARK   14  A    between atoms: _37  and  _39
REMARK   15  A    between atoms: _39  and  _40
REMARK   16  A    between atoms: _39  and  _42
REMARK   17  A    between atoms: _42  and  _43
REMARK   18  A    between atoms: _46  and  _48
REMARK   19  A    between atoms: _48  and  _49
REMARK   20  A    between atoms: _48  and  _51
REMARK   21  A    between atoms: _51  and  _52
REMARK   22  A    between atoms: _55  and  _57
REMARK   23  A    between atoms: _57  and  _58
REMARK   24  A    between atoms: _57  and  _60
REMARK   25  A    between atoms: _60  and  _61
REMARK   26  A    between atoms: _64  and  _66
REMARK   27  A    between atoms: _66  and  _67
REMARK   28  A    between atoms: _66  and  _69
REMARK   29  A    between atoms: _71  and  _73
REMARK   30  A    between atoms: _73  and  _74
REMARK   31  A    between atoms: _73  and  _76
REMARK   32  A    between atoms: _76  and  _77
REMARK   33  A    between atoms: _79  and  _81
REMARK   34  A    between atoms: _81  and  _82
REMARK   35  A    between atoms: _81  and  _84
REMARK   36  A    between atoms: _87  and  _89
REMARK   37  A    between atoms: _89  and  _90
REMARK   38  A    between atoms: _89  and  _92
REMARK   39  A    between atoms: _92  and  _93
REMARK   40  A    between atoms: _96  and  _98
REMARK   41  A    between atoms: _98  and  _99
REMARK   42  A    between atoms: _98  and  _101
REMARK   43  A    between atoms: _101  and  _102
REMARK   44  A    between atoms: _105  and  _107
REMARK   45  A    between atoms: _107  and  _108
REMARK   46  A    between atoms: _111  and  _113
REMARK   47  A    between atoms: _113  and  _114
REMARK   48  A    between atoms: _113  and  _116
REMARK   49  A    between atoms: _116  and  _117
REMARK   50  A    between atoms: _120  and  _122
REMARK   51  A    between atoms: _122  and  _123
REMARK   52  A    between atoms: _122  and  _125
REMARK   53  A    between atoms: _125  and  _126
REMARK   54  A    between atoms: _131  and  _132
REMARK   55  A    between atoms: _134  and  _136
REMARK   56  A    between atoms: _136  and  _137
REMARK   57  A    between atoms: _136  and  _139
REMARK   58  A    between atoms: _139  and  _140
REMARK   59  A    between atoms: _146  and  _148
REMARK   60  A    between atoms: _148  and  _149
REMARK   61  A    between atoms: _148  and  _151
REMARK   62  A    between atoms: _151  and  _152
REMARK   63  A    between atoms: _152  and  _153
REMARK   64  A    between atoms: _155  and  _157
REMARK   65  A    between atoms: _157  and  _158
REMARK   66  A    between atoms: _157  and  _160
REMARK   67  A    between atoms: _163  and  _165
REMARK   68  A    between atoms: _165  and  _166
REMARK   69  A    between atoms: _168  and  _170
REMARK   70  A    between atoms: _170  and  _171
REMARK   71  A    between atoms: _170  and  _173
REMARK   72  A    between atoms: _173  and  _174
REMARK   73  A    between atoms: _174  and  _175
REMARK   74  A    between atoms: _180  and  _182
REMARK   75  A    between atoms: _182  and  _183
REMARK   76  A    between atoms: _182  and  _185
REMARK   77  A    between atoms: _185  and  _186
REMARK   78  A    between atoms: _189  and  _191
REMARK   79  A    between atoms: _191  and  _192
REMARK   80  A    between atoms: _194  and  _196
REMARK   81  A    between atoms: _196  and  _197
REMARK   82  A    between atoms: _196  and  _199
REMARK   83  A    between atoms: _199  and  _200
REMARK   84  A    between atoms: _206  and  _208
REMARK   85  A    between atoms: _208  and  _209
REMARK   86  A    between atoms: _208  and  _211
REMARK   87  A    between atoms: _211  and  _212
REMARK   88  A    between atoms: _217  and  _218
REMARK   89  A    between atoms: _220  and  _222
REMARK   90  A    between atoms: _222  and  _223
REMARK   91  A    between atoms: _222  and  _225
REMARK   92  A    between atoms: _228  and  _230
REMARK   93  A    between atoms: _230  and  _231
REMARK   94  A    between atoms: _234  and  _236
REMARK   95  A    between atoms: _236  and  _237
REMARK   96  A    between atoms: _236  and  _239
REMARK   97  A    between atoms: _239  and  _240
REMARK                            x       y       z     vdW  Elec       q    Type
REMARK                         _______ _______ _______ _____ _____    ______ ____
ROOT
ATOM      1  O   HOH     1       4.247 -36.547 -32.099  0.00  0.00    +0.000 OA
ENDROOT
TORSDOF 0
REMARK  Name = ../refined-set-2016/4msn/4msn_pocket.pdb
REMARK  97 active torsions:
REMARK  status: ('A' for Active; 'I' for Inactive)
REMARK    1  A    between atoms: _1  and  _3
REMARK    2  A    between atoms: _3  and  _4
REMARK    3  A    between atoms: _3  and  _6
REMARK    4  A    between atoms: _6  and  _7
REMARK    5  A    between atoms: _12  and  _13
REMARK    6  A    between atoms: _15  and  _17
REMARK    7  A    between atoms: _17  and  _18
REMARK    8  A    between atoms: _17  and  _20
REMARK    9  A    between atoms: _20  and  _21
REMARK   10  A    between atoms: _26  and  _28
REMARK   11  A    between atoms: _28  and  _29
REMARK   12  A    between atoms: _28  and  _31
REMARK   13  A    between atoms: _31  and  _32
REMARK   14  A    between atoms: _37  and  _39
REMARK   15  A    between atoms: _39  and  _40
REMARK   16  A    between atoms: _39  and  _42
REMARK   17  A    between atoms: _42  and  _43
REMARK   18  A    between atoms: _46  and  _48
REMARK   19  A    between atoms: _48  and  _49
REMARK   20  A    between atoms: _48  and  _51
REMARK   21  A    between atoms: _51  and  _52
REMARK   22  A    between atoms: _55  and  _57
REMARK   23  A    between atoms: _57  and  _58
REMARK   24  A    between atoms: _57  and  _60
REMARK   25  A    between atoms: _60  and  _61
REMARK   26  A    between atoms: _64  and  _66
REMARK   27  A    between atoms: _66  and  _67
REMARK   28  A    between atoms: _66  and  _69
REMARK   29  A    between atoms: _71  and  _73
REMARK   30  A    between atoms: _73  and  _74
REMARK   31  A    between atoms: _73  and  _76
REMARK   32  A    between atoms: _76  and  _77
REMARK   33  A    between atoms: _79  and  _81
REMARK   34  A    between atoms: _81  and  _82
REMARK   35  A    between atoms: _81  and  _84
REMARK   36  A    between atoms: _87  and  _89
REMARK   37  A    between atoms: _89  and  _90
REMARK   38  A    between atoms: _89  and  _92
REMARK   39  A    between atoms: _92  and  _93
REMARK   40  A    between atoms: _96  and  _98
REMARK   41  A    between atoms: _98  and  _99
REMARK   42  A    between atoms: _98  and  _101
REMARK   43  A    between atoms: _101  and  _102
REMARK   44  A    between atoms: _105  and  _107
REMARK   45  A    between atoms: _107  and  _108
REMARK   46  A    between atoms: _111  and  _113
REMARK   47  A    between atoms: _113  and  _114
REMARK   48  A    between atoms: _113  and  _116
REMARK   49  A    between atoms: _116  and  _117
REMARK   50  A    between atoms: _120  and  _122
REMARK   51  A    between atoms: _122  and  _123
REMARK   52  A    between atoms: _122  and  _125
REMARK   53  A    between atoms: _125  and  _126
REMARK   54  A    between atoms: _131  and  _132
REMARK   55  A    between atoms: _134  and  _136
REMARK   56  A    between atoms: _136  and  _137
REMARK   57  A    between atoms: _136  and  _139
REMARK   58  A    between atoms: _139  and  _140
REMARK   59  A    between atoms: _146  and  _148
REMARK   60  A    between atoms: _148  and  _149
REMARK   61  A    between atoms: _148  and  _151
REMARK   62  A    between atoms: _151  and  _152
REMARK   63  A    between atoms: _152  and  _153
REMARK   64  A    between atoms: _155  and  _157
REMARK   65  A    between atoms: _157  and  _158
REMARK   66  A    between atoms: _157  and  _160
REMARK   67  A    between atoms: _163  and  _165
REMARK   68  A    between atoms: _165  and  _166
REMARK   69  A    between atoms: _168  and  _170
REMARK   70  A    between atoms: _170  and  _171
REMARK   71  A    between atoms: _170  and  _173
REMARK   72  A    between atoms: _173  and  _174
REMARK   73  A    between atoms: _174  and  _175
REMARK   74  A    between atoms: _180  and  _182
REMARK   75  A    between atoms: _182  and  _183
REMARK   76  A    between atoms: _182  and  _185
REMARK   77  A    between atoms: _185  and  _186
REMARK   78  A    between atoms: _189  and  _191
REMARK   79  A    between atoms: _191  and  _192
REMARK   80  A    between atoms: _194  and  _196
REMARK   81  A    between atoms: _196  and  _197
REMARK   82  A    between atoms: _196  and  _199
REMARK   83  A    between atoms: _199  and  _200
REMARK   84  A    between atoms: _206  and  _208
REMARK   85  A    between atoms: _208  and  _209
REMARK   86  A    between atoms: _208  and  _211
REMARK   87  A    between atoms: _211  and  _212
REMARK   88  A    between atoms: _217  and  _218
REMARK   89  A    between atoms: _220  and  _222
REMARK   90  A    between atoms: _222  and  _223
REMARK   91  A    between atoms: _222  and  _225
REMARK   92  A    between atoms: _228  and  _230
REMARK   93  A    between atoms: _230  and  _231
REMARK   94  A    between atoms: _234  and  _236
REMARK   95  A    between atoms: _236  and  _237
REMARK   96  A    between atoms: _236  and  _239
REMARK   97  A    between atoms: _239  and  _240
REMARK                            x       y       z     vdW  Elec       q    Type
REMARK                         _______ _______ _______ _____ _____    ______ ____
ROOT
ATOM      1  O   HOH     1      12.437 -29.659 -36.444  0.00  0.00    +0.000 OA
ENDROOT
TORSDOF 0
REMARK  Name = ../refined-set-2016/4msn/4msn_pocket.pdb
REMARK  97 active torsions:
REMARK  status: ('A' for Active; 'I' for Inactive)
REMARK    1  A    between atoms: _1  and  _3
REMARK    2  A    between atoms: _3  and  _4
REMARK    3  A    between atoms: _3  and  _6
REMARK    4  A    between atoms: _6  and  _7
REMARK    5  A    between atoms: _12  and  _13
REMARK    6  A    between atoms: _15  and  _17
REMARK    7  A    between atoms: _17  and  _18
REMARK    8  A    between atoms: _17  and  _20
REMARK    9  A    between atoms: _20  and  _21
REMARK   10  A    between atoms: _26  and  _28
REMARK   11  A    between atoms: _28  and  _29
REMARK   12  A    between atoms: _28  and  _31
REMARK   13  A    between atoms: _31  and  _32
REMARK   14  A    between atoms: _37  and  _39
REMARK   15  A    between atoms: _39  and  _40
REMARK   16  A    between atoms: _39  and  _42
REMARK   17  A    between atoms: _42  and  _43
REMARK   18  A    between atoms: _46  and  _48
REMARK   19  A    between atoms: _48  and  _49
REMARK   20  A    between atoms: _48  and  _51
REMARK   21  A    between atoms: _51  and  _52
REMARK   22  A    between atoms: _55  and  _57
REMARK   23  A    between atoms: _57  and  _58
REMARK   24  A    between atoms: _57  and  _60
REMARK   25  A    between atoms: _60  and  _61
REMARK   26  A    between atoms: _64  and  _66
REMARK   27  A    between atoms: _66  and  _67
REMARK   28  A    between atoms: _66  and  _69
REMARK   29  A    between atoms: _71  and  _73
REMARK   30  A    between atoms: _73  and  _74
REMARK   31  A    between atoms: _73  and  _76
REMARK   32  A    between atoms: _76  and  _77
REMARK   33  A    between atoms: _79  and  _81
REMARK   34  A    between atoms: _81  and  _82
REMARK   35  A    between atoms: _81  and  _84
REMARK   36  A    between atoms: _87  and  _89
REMARK   37  A    between atoms: _89  and  _90
REMARK   38  A    between atoms: _89  and  _92
REMARK   39  A    between atoms: _92  and  _93
REMARK   40  A    between atoms: _96  and  _98
REMARK   41  A    between atoms: _98  and  _99
REMARK   42  A    between atoms: _98  and  _101
REMARK   43  A    between atoms: _101  and  _102
REMARK   44  A    between atoms: _105  and  _107
REMARK   45  A    between atoms: _107  and  _108
REMARK   46  A    between atoms: _111  and  _113
REMARK   47  A    between atoms: _113  and  _114
REMARK   48  A    between atoms: _113  and  _116
REMARK   49  A    between atoms: _116  and  _117
REMARK   50  A    between atoms: _120  and  _122
REMARK   51  A    between atoms: _122  and  _123
REMARK   52  A    between atoms: _122  and  _125
REMARK   53  A    between atoms: _125  and  _126
REMARK   54  A    between atoms: _131  and  _132
REMARK   55  A    between atoms: _134  and  _136
REMARK   56  A    between atoms: _136  and  _137
REMARK   57  A    between atoms: _136  and  _139
REMARK   58  A    between atoms: _139  and  _140
REMARK   59  A    between atoms: _146  and  _148
REMARK   60  A    between atoms: _148  and  _149
REMARK   61  A    between atoms: _148  and  _151
REMARK   62  A    between atoms: _151  and  _152
REMARK   63  A    between atoms: _152  and  _153
REMARK   64  A    between atoms: _155  and  _157
REMARK   65  A    between atoms: _157  and  _158
REMARK   66  A    between atoms: _157  and  _160
REMARK   67  A    between atoms: _163  and  _165
REMARK   68  A    between atoms: _165  and  _166
REMARK   69  A    between atoms: _168  and  _170
REMARK   70  A    between atoms: _170  and  _171
REMARK   71  A    between atoms: _170  and  _173
REMARK   72  A    between atoms: _173  and  _174
REMARK   73  A    between atoms: _174  and  _175
REMARK   74  A    between atoms: _180  and  _182
REMARK   75  A    between atoms: _182  and  _183
REMARK   76  A    between atoms: _182  and  _185
REMARK   77  A    between atoms: _185  and  _186
REMARK   78  A    between atoms: _189  and  _191
REMARK   79  A    between atoms: _191  and  _192
REMARK   80  A    between atoms: _194  and  _196
REMARK   81  A    between atoms: _196  and  _197
REMARK   82  A    between atoms: _196  and  _199
REMARK   83  A    between atoms: _199  and  _200
REMARK   84  A    between atoms: _206  and  _208
REMARK   85  A    between atoms: _208  and  _209
REMARK   86  A    between atoms: _208  and  _211
REMARK   87  A    between atoms: _211  and  _212
REMARK   88  A    between atoms: _217  and  _218
REMARK   89  A    between atoms: _220  and  _222
REMARK   90  A    between atoms: _222  and  _223
REMARK   91  A    between atoms: _222  and  _225
REMARK   92  A    between atoms: _228  and  _230
REMARK   93  A    between atoms: _230  and  _231
REMARK   94  A    between atoms: _234  and  _236
REMARK   95  A    between atoms: _236  and  _237
REMARK   96  A    between atoms: _236  and  _239
REMARK   97  A    between atoms: _239  and  _240
REMARK                            x       y       z     vdW  Elec       q    Type
REMARK                         _______ _______ _______ _____ _____    ______ ____
ROOT
ATOM      1  O   HOH     1       1.259 -22.896 -30.914  0.00  0.00    +0.000 OA
ENDROOT
TORSDOF 0
REMARK  Name = ../refined-set-2016/4msn/4msn_pocket.pdb
REMARK  97 active torsions:
REMARK  status: ('A' for Active; 'I' for Inactive)
REMARK    1  A    between atoms: _1  and  _3
REMARK    2  A    between atoms: _3  and  _4
REMARK    3  A    between atoms: _3  and  _6
REMARK    4  A    between atoms: _6  and  _7
REMARK    5  A    between atoms: _12  and  _13
REMARK    6  A    between atoms: _15  and  _17
REMARK    7  A    between atoms: _17  and  _18
REMARK    8  A    between atoms: _17  and  _20
REMARK    9  A    between atoms: _20  and  _21
REMARK   10  A    between atoms: _26  and  _28
REMARK   11  A    between atoms: _28  and  _29
REMARK   12  A    between atoms: _28  and  _31
REMARK   13  A    between atoms: _31  and  _32
REMARK   14  A    between atoms: _37  and  _39
REMARK   15  A    between atoms: _39  and  _40
REMARK   16  A    between atoms: _39  and  _42
REMARK   17  A    between atoms: _42  and  _43
REMARK   18  A    between atoms: _46  and  _48
REMARK   19  A    between atoms: _48  and  _49
REMARK   20  A    between atoms: _48  and  _51
REMARK   21  A    between atoms: _51  and  _52
REMARK   22  A    between atoms: _55  and  _57
REMARK   23  A    between atoms: _57  and  _58
REMARK   24  A    between atoms: _57  and  _60
REMARK   25  A    between atoms: _60  and  _61
REMARK   26  A    between atoms: _64  and  _66
REMARK   27  A    between atoms: _66  and  _67
REMARK   28  A    between atoms: _66  and  _69
REMARK   29  A    between atoms: _71  and  _73
REMARK   30  A    between atoms: _73  and  _74
REMARK   31  A    between atoms: _73  and  _76
REMARK   32  A    between atoms: _76  and  _77
REMARK   33  A    between atoms: _79  and  _81
REMARK   34  A    between atoms: _81  and  _82
REMARK   35  A    between atoms: _81  and  _84
REMARK   36  A    between atoms: _87  and  _89
REMARK   37  A    between atoms: _89  and  _90
REMARK   38  A    between atoms: _89  and  _92
REMARK   39  A    between atoms: _92  and  _93
REMARK   40  A    between atoms: _96  and  _98
REMARK   41  A    between atoms: _98  and  _99
REMARK   42  A    between atoms: _98  and  _101
REMARK   43  A    between atoms: _101  and  _102
REMARK   44  A    between atoms: _105  and  _107
REMARK   45  A    between atoms: _107  and  _108
REMARK   46  A    between atoms: _111  and  _113
REMARK   47  A    between atoms: _113  and  _114
REMARK   48  A    between atoms: _113  and  _116
REMARK   49  A    between atoms: _116  and  _117
REMARK   50  A    between atoms: _120  and  _122
REMARK   51  A    between atoms: _122  and  _123
REMARK   52  A    between atoms: _122  and  _125
REMARK   53  A    between atoms: _125  and  _126
REMARK   54  A    between atoms: _131  and  _132
REMARK   55  A    between atoms: _134  and  _136
REMARK   56  A    between atoms: _136  and  _137
REMARK   57  A    between atoms: _136  and  _139
REMARK   58  A    between atoms: _139  and  _140
REMARK   59  A    between atoms: _146  and  _148
REMARK   60  A    between atoms: _148  and  _149
REMARK   61  A    between atoms: _148  and  _151
REMARK   62  A    between atoms: _151  and  _152
REMARK   63  A    between atoms: _152  and  _153
REMARK   64  A    between atoms: _155  and  _157
REMARK   65  A    between atoms: _157  and  _158
REMARK   66  A    between atoms: _157  and  _160
REMARK   67  A    between atoms: _163  and  _165
REMARK   68  A    between atoms: _165  and  _166
REMARK   69  A    between atoms: _168  and  _170
REMARK   70  A    between atoms: _170  and  _171
REMARK   71  A    between atoms: _170  and  _173
REMARK   72  A    between atoms: _173  and  _174
REMARK   73  A    between atoms: _174  and  _175
REMARK   74  A    between atoms: _180  and  _182
REMARK   75  A    between atoms: _182  and  _183
REMARK   76  A    between atoms: _182  and  _185
REMARK   77  A    between atoms: _185  and  _186
REMARK   78  A    between atoms: _189  and  _191
REMARK   79  A    between atoms: _191  and  _192
REMARK   80  A    between atoms: _194  and  _196
REMARK   81  A    between atoms: _196  and  _197
REMARK   82  A    between atoms: _196  and  _199
REMARK   83  A    between atoms: _199  and  _200
REMARK   84  A    between atoms: _206  and  _208
REMARK   85  A    between atoms: _208  and  _209
REMARK   86  A    between atoms: _208  and  _211
REMARK   87  A    between atoms: _211  and  _212
REMARK   88  A    between atoms: _217  and  _218
REMARK   89  A    between atoms: _220  and  _222
REMARK   90  A    between atoms: _222  and  _223
REMARK   91  A    between atoms: _222  and  _225
REMARK   92  A    between atoms: _228  and  _230
REMARK   93  A    between atoms: _230  and  _231
REMARK   94  A    between atoms: _234  and  _236
REMARK   95  A    between atoms: _236  and  _237
REMARK   96  A    between atoms: _236  and  _239
REMARK   97  A    between atoms: _239  and  _240
REMARK                            x       y       z     vdW  Elec       q    Type
REMARK                         _______ _______ _______ _____ _____    ______ ____
ROOT
ATOM      1  O   HOH     1      10.560 -34.506 -33.516  0.00  0.00    +0.000 OA
ENDROOT
TORSDOF 0
REMARK  Name = ../refined-set-2016/4msn/4msn_pocket.pdb
REMARK  97 active torsions:
REMARK  status: ('A' for Active; 'I' for Inactive)
REMARK    1  A    between atoms: _1  and  _3
REMARK    2  A    between atoms: _3  and  _4
REMARK    3  A    between atoms: _3  and  _6
REMARK    4  A    between atoms: _6  and  _7
REMARK    5  A    between atoms: _12  and  _13
REMARK    6  A    between atoms: _15  and  _17
REMARK    7  A    between atoms: _17  and  _18
REMARK    8  A    between atoms: _17  and  _20
REMARK    9  A    between atoms: _20  and  _21
REMARK   10  A    between atoms: _26  and  _28
REMARK   11  A    between atoms: _28  and  _29
REMARK   12  A    between atoms: _28  and  _31
REMARK   13  A    between atoms: _31  and  _32
REMARK   14  A    between atoms: _37  and  _39
REMARK   15  A    between atoms: _39  and  _40
REMARK   16  A    between atoms: _39  and  _42
REMARK   17  A    between atoms: _42  and  _43
REMARK   18  A    between atoms: _46  and  _48
REMARK   19  A    between atoms: _48  and  _49
REMARK   20  A    between atoms: _48  and  _51
REMARK   21  A    between atoms: _51  and  _52
REMARK   22  A    between atoms: _55  and  _57
REMARK   23  A    between atoms: _57  and  _58
REMARK   24  A    between atoms: _57  and  _60
REMARK   25  A    between atoms: _60  and  _61
REMARK   26  A    between atoms: _64  and  _66
REMARK   27  A    between atoms: _66  and  _67
REMARK   28  A    between atoms: _66  and  _69
REMARK   29  A    between atoms: _71  and  _73
REMARK   30  A    between atoms: _73  and  _74
REMARK   31  A    between atoms: _73  and  _76
REMARK   32  A    between atoms: _76  and  _77
REMARK   33  A    between atoms: _79  and  _81
REMARK   34  A    between atoms: _81  and  _82
REMARK   35  A    between atoms: _81  and  _84
REMARK   36  A    between atoms: _87  and  _89
REMARK   37  A    between atoms: _89  and  _90
REMARK   38  A    between atoms: _89  and  _92
REMARK   39  A    between atoms: _92  and  _93
REMARK   40  A    between atoms: _96  and  _98
REMARK   41  A    between atoms: _98  and  _99
REMARK   42  A    between atoms: _98  and  _101
REMARK   43  A    between atoms: _101  and  _102
REMARK   44  A    between atoms: _105  and  _107
REMARK   45  A    between atoms: _107  and  _108
REMARK   46  A    between atoms: _111  and  _113
REMARK   47  A    between atoms: _113  and  _114
REMARK   48  A    between atoms: _113  and  _116
REMARK   49  A    between atoms: _116  and  _117
REMARK   50  A    between atoms: _120  and  _122
REMARK   51  A    between atoms: _122  and  _123
REMARK   52  A    between atoms: _122  and  _125
REMARK   53  A    between atoms: _125  and  _126
REMARK   54  A    between atoms: _131  and  _132
REMARK   55  A    between atoms: _134  and  _136
REMARK   56  A    between atoms: _136  and  _137
REMARK   57  A    between atoms: _136  and  _139
REMARK   58  A    between atoms: _139  and  _140
REMARK   59  A    between atoms: _146  and  _148
REMARK   60  A    between atoms: _148  and  _149
REMARK   61  A    between atoms: _148  and  _151
REMARK   62  A    between atoms: _151  and  _152
REMARK   63  A    between atoms: _152  and  _153
REMARK   64  A    between atoms: _155  and  _157
REMARK   65  A    between atoms: _157  and  _158
REMARK   66  A    between atoms: _157  and  _160
REMARK   67  A    between atoms: _163  and  _165
REMARK   68  A    between atoms: _165  and  _166
REMARK   69  A    between atoms: _168  and  _170
REMARK   70  A    between atoms: _170  and  _171
REMARK   71  A    between atoms: _170  and  _173
REMARK   72  A    between atoms: _173  and  _174
REMARK   73  A    between atoms: _174  and  _175
REMARK   74  A    between atoms: _180  and  _182
REMARK   75  A    between atoms: _182  and  _183
REMARK   76  A    between atoms: _182  and  _185
REMARK   77  A    between atoms: _185  and  _186
REMARK   78  A    between atoms: _189  and  _191
REMARK   79  A    between atoms: _191  and  _192
REMARK   80  A    between atoms: _194  and  _196
REMARK   81  A    between atoms: _196  and  _197
REMARK   82  A    between atoms: _196  and  _199
REMARK   83  A    between atoms: _199  and  _200
REMARK   84  A    between atoms: _206  and  _208
REMARK   85  A    between atoms: _208  and  _209
REMARK   86  A    between atoms: _208  and  _211
REMARK   87  A    between atoms: _211  and  _212
REMARK   88  A    between atoms: _217  and  _218
REMARK   89  A    between atoms: _220  and  _222
REMARK   90  A    between atoms: _222  and  _223
REMARK   91  A    between atoms: _222  and  _225
REMARK   92  A    between atoms: _228  and  _230
REMARK   93  A    between atoms: _230  and  _231
REMARK   94  A    between atoms: _234  and  _236
REMARK   95  A    between atoms: _236  and  _237
REMARK   96  A    between atoms: _236  and  _239
REMARK   97  A    between atoms: _239  and  _240
REMARK                            x       y       z     vdW  Elec       q    Type
REMARK                         _______ _______ _______ _____ _____    ______ ____
ROOT
ATOM      1  O   HOH     1       6.612 -35.860 -35.753  0.00  0.00    +0.000 OA
ENDROOT
TORSDOF 0
