REMARK  Name = ../refined-set-2016/4loh/4loh_pocket.pdb
REMARK  279 active torsions:
REMARK  status: ('A' for Active; 'I' for Inactive)
REMARK    1  A    between atoms: _1  and  _3
REMARK    2  A    between atoms: _3  and  _4
REMARK    3  A    between atoms: _6  and  _8
REMARK    4  A    between atoms: _8  and  _9
REMARK    5  A    between atoms: _8  and  _11
REMARK    6  A    between atoms: _11  and  _12
REMARK    7  A    between atoms: _15  and  _17
REMARK    8  A    between atoms: _17  and  _18
REMARK    9  A    between atoms: _21  and  _23
REMARK   10  A    between atoms: _23  and  _24
REMARK   11  A    between atoms: _23  and  _26
REMARK   12  A    between atoms: _26  and  _27
REMARK   13  A    between atoms: _37  and  _39
REMARK   14  A    between atoms: _39  and  _40
REMARK   15  A    between atoms: _39  and  _42
REMARK   16  A    between atoms: _42  and  _43
REMARK   17  A    between atoms: _45  and  _47
REMARK   18  A    between atoms: _47  and  _48
REMARK   19  A    between atoms: _47  and  _50
REMARK   20  A    between atoms: _50  and  _51
REMARK   21  A    between atoms: _56  and  _57
REMARK   22  A    between atoms: _59  and  _61
REMARK   23  A    between atoms: _61  and  _62
REMARK   24  A    between atoms: _61  and  _64
REMARK   25  A    between atoms: _64  and  _65
REMARK   26  A    between atoms: _70  and  _71
REMARK   27  A    between atoms: _73  and  _75
REMARK   28  A    between atoms: _75  and  _76
REMARK   29  A    between atoms: _75  and  _78
REMARK   30  A    between atoms: _78  and  _79
REMARK   31  A    between atoms: _82  and  _84
REMARK   32  A    between atoms: _84  and  _85
REMARK   33  A    between atoms: _87  and  _89
REMARK   34  A    between atoms: _89  and  _90
REMARK   35  A    between atoms: _89  and  _92
REMARK   36  A    between atoms: _92  and  _93
REMARK   37  A    between atoms: _98  and  _99
REMARK   38  A    between atoms: _101  and  _103
REMARK   39  A    between atoms: _103  and  _104
REMARK   40  A    between atoms: _103  and  _106
REMARK   41  A    between atoms: _106  and  _107
REMARK   42  A    between atoms: _110  and  _112
REMARK   43  A    between atoms: _112  and  _113
REMARK   44  A    between atoms: _112  and  _115
REMARK   45  A    between atoms: _115  and  _116
REMARK   46  A    between atoms: _116  and  _117
REMARK   47  A    between atoms: _117  and  _118
REMARK   48  A    between atoms: _127  and  _129
REMARK   49  A    between atoms: _129  and  _130
REMARK   50  A    between atoms: _129  and  _132
REMARK   51  A    between atoms: _132  and  _133
REMARK   52  A    between atoms: _136  and  _138
REMARK   53  A    between atoms: _138  and  _139
REMARK   54  A    between atoms: _138  and  _141
REMARK   55  A    between atoms: _141  and  _142
REMARK   56  A    between atoms: _145  and  _147
REMARK   57  A    between atoms: _147  and  _148
REMARK   58  A    between atoms: _147  and  _150
REMARK   59  A    between atoms: _150  and  _151
REMARK   60  A    between atoms: _151  and  _152
REMARK   61  A    between atoms: _157  and  _159
REMARK   62  A    between atoms: _159  and  _160
REMARK   63  A    between atoms: _159  and  _162
REMARK   64  A    between atoms: _162  and  _163
REMARK   65  A    between atoms: _168  and  _170
REMARK   66  A    between atoms: _170  and  _171
REMARK   67  A    between atoms: _174  and  _176
REMARK   68  A    between atoms: _176  and  _177
REMARK   69  A    between atoms: _179  and  _181
REMARK   70  A    between atoms: _181  and  _182
REMARK   71  A    between atoms: _181  and  _184
REMARK   72  A    between atoms: _184  and  _185
REMARK   73  A    between atoms: _188  and  _190
REMARK   74  A    between atoms: _190  and  _191
REMARK   75  A    between atoms: _190  and  _193
REMARK   76  A    between atoms: _193  and  _194
REMARK   77  A    between atoms: _194  and  _195
REMARK   78  A    between atoms: _195  and  _196
REMARK   79  A    between atoms: _205  and  _207
REMARK   80  A    between atoms: _207  and  _208
REMARK   81  A    between atoms: _207  and  _210
REMARK   82  A    between atoms: _213  and  _215
REMARK   83  A    between atoms: _215  and  _216
REMARK   84  A    between atoms: _215  and  _218
REMARK   85  A    between atoms: _218  and  _219
REMARK   86  A    between atoms: _224  and  _225
REMARK   87  A    between atoms: _227  and  _229
REMARK   88  A    between atoms: _229  and  _230
REMARK   89  A    between atoms: _229  and  _232
REMARK   90  A    between atoms: _232  and  _233
REMARK   91  A    between atoms: _235  and  _237
REMARK   92  A    between atoms: _237  and  _238
REMARK   93  A    between atoms: _237  and  _240
REMARK   94  A    between atoms: _240  and  _241
REMARK   95  A    between atoms: _246  and  _248
REMARK   96  A    between atoms: _248  and  _249
REMARK   97  A    between atoms: _248  and  _251
REMARK   98  A    between atoms: _251  and  _252
REMARK   99  A    between atoms: _252  and  _253
REMARK  100  A    between atoms: _256  and  _258
REMARK  101  A    between atoms: _258  and  _259
REMARK  102  A    between atoms: _258  and  _261
REMARK  103  A    between atoms: _261  and  _262
REMARK  104  A    between atoms: _267  and  _268
REMARK  105  A    between atoms: _270  and  _272
REMARK  106  A    between atoms: _272  and  _273
REMARK  107  A    between atoms: _276  and  _278
REMARK  108  A    between atoms: _278  and  _279
REMARK  109  A    between atoms: _278  and  _281
REMARK  110  A    between atoms: _281  and  _282
REMARK  111  A    between atoms: _286  and  _287
REMARK  112  A    between atoms: _292  and  _294
REMARK  113  A    between atoms: _294  and  _295
REMARK  114  A    between atoms: _294  and  _297
REMARK  115  A    between atoms: _297  and  _298
REMARK  116  A    between atoms: _301  and  _303
REMARK  117  A    between atoms: _303  and  _304
REMARK  118  A    between atoms: _303  and  _306
REMARK  119  A    between atoms: _306  and  _307
REMARK  120  A    between atoms: _307  and  _308
REMARK  121  A    between atoms: _313  and  _315
REMARK  122  A    between atoms: _315  and  _316
REMARK  123  A    between atoms: _315  and  _318
REMARK  124  A    between atoms: _318  and  _319
REMARK  125  A    between atoms: _322  and  _324
REMARK  126  A    between atoms: _324  and  _325
REMARK  127  A    between atoms: _324  and  _327
REMARK  128  A    between atoms: _327  and  _328
REMARK  129  A    between atoms: _331  and  _333
REMARK  130  A    between atoms: _333  and  _334
REMARK  131  A    between atoms: _333  and  _336
REMARK  132  A    between atoms: _336  and  _337
REMARK  133  A    between atoms: _343  and  _345
REMARK  134  A    between atoms: _345  and  _346
REMARK  135  A    between atoms: _348  and  _350
REMARK  136  A    between atoms: _350  and  _351
REMARK  137  A    between atoms: _350  and  _353
REMARK  138  A    between atoms: _353  and  _354
REMARK  139  A    between atoms: _357  and  _359
REMARK  140  A    between atoms: _359  and  _360
REMARK  141  A    between atoms: _363  and  _365
REMARK  142  A    between atoms: _365  and  _366
REMARK  143  A    between atoms: _365  and  _368
REMARK  144  A    between atoms: _368  and  _369
REMARK  145  A    between atoms: _379  and  _381
REMARK  146  A    between atoms: _381  and  _382
REMARK  147  A    between atoms: _381  and  _384
REMARK  148  A    between atoms: _384  and  _385
REMARK  149  A    between atoms: _387  and  _389
REMARK  150  A    between atoms: _389  and  _390
REMARK  151  A    between atoms: _389  and  _392
REMARK  152  A    between atoms: _392  and  _393
REMARK  153  A    between atoms: _398  and  _399
REMARK  154  A    between atoms: _401  and  _403
REMARK  155  A    between atoms: _403  and  _404
REMARK  156  A    between atoms: _403  and  _406
REMARK  157  A    between atoms: _406  and  _407
REMARK  158  A    between atoms: _412  and  _413
REMARK  159  A    between atoms: _415  and  _417
REMARK  160  A    between atoms: _417  and  _418
REMARK  161  A    between atoms: _417  and  _420
REMARK  162  A    between atoms: _420  and  _421
REMARK  163  A    between atoms: _424  and  _426
REMARK  164  A    between atoms: _426  and  _427
REMARK  165  A    between atoms: _429  and  _431
REMARK  166  A    between atoms: _431  and  _432
REMARK  167  A    between atoms: _431  and  _434
REMARK  168  A    between atoms: _434  and  _435
REMARK  169  A    between atoms: _440  and  _441
REMARK  170  A    between atoms: _443  and  _445
REMARK  171  A    between atoms: _445  and  _446
REMARK  172  A    between atoms: _445  and  _448
REMARK  173  A    between atoms: _448  and  _449
REMARK  174  A    between atoms: _452  and  _454
REMARK  175  A    between atoms: _454  and  _455
REMARK  176  A    between atoms: _454  and  _457
REMARK  177  A    between atoms: _457  and  _458
REMARK  178  A    between atoms: _458  and  _459
REMARK  179  A    between atoms: _459  and  _460
REMARK  180  A    between atoms: _469  and  _471
REMARK  181  A    between atoms: _471  and  _472
REMARK  182  A    between atoms: _471  and  _474
REMARK  183  A    between atoms: _474  and  _475
REMARK  184  A    between atoms: _478  and  _480
REMARK  185  A    between atoms: _480  and  _481
REMARK  186  A    between atoms: _480  and  _483
REMARK  187  A    between atoms: _483  and  _484
REMARK  188  A    between atoms: _487  and  _489
REMARK  189  A    between atoms: _489  and  _490
REMARK  190  A    between atoms: _489  and  _492
REMARK  191  A    between atoms: _492  and  _493
REMARK  192  A    between atoms: _493  and  _494
REMARK  193  A    between atoms: _494  and  _495
REMARK  194  A    between atoms: _504  and  _506
REMARK  195  A    between atoms: _506  and  _507
REMARK  196  A    between atoms: _506  and  _509
REMARK  197  A    between atoms: _509  and  _510
REMARK  198  A    between atoms: _513  and  _515
REMARK  199  A    between atoms: _515  and  _516
REMARK  200  A    between atoms: _515  and  _518
REMARK  201  A    between atoms: _518  and  _519
REMARK  202  A    between atoms: _519  and  _520
REMARK  203  A    between atoms: _520  and  _521
REMARK  204  A    between atoms: _521  and  _522
REMARK  205  A    between atoms: _526  and  _528
REMARK  206  A    between atoms: _528  and  _529
REMARK  207  A    between atoms: _528  and  _531
REMARK  208  A    between atoms: _531  and  _532
REMARK  209  A    between atoms: _532  and  _533
REMARK  210  A    between atoms: _538  and  _540
REMARK  211  A    between atoms: _540  and  _541
REMARK  212  A    between atoms: _540  and  _543
REMARK  213  A    between atoms: _543  and  _544
REMARK  214  A    between atoms: _549  and  _551
REMARK  215  A    between atoms: _551  and  _552
REMARK  216  A    between atoms: _555  and  _557
REMARK  217  A    between atoms: _557  and  _558
REMARK  218  A    between atoms: _557  and  _560
REMARK  219  A    between atoms: _560  and  _561
REMARK  220  A    between atoms: _564  and  _566
REMARK  221  A    between atoms: _566  and  _567
REMARK  222  A    between atoms: _566  and  _569
REMARK  223  A    between atoms: _569  and  _570
REMARK  224  A    between atoms: _570  and  _571
REMARK  225  A    between atoms: _571  and  _572
REMARK  226  A    between atoms: _581  and  _583
REMARK  227  A    between atoms: _583  and  _584
REMARK  228  A    between atoms: _583  and  _586
REMARK  229  A    between atoms: _589  and  _591
REMARK  230  A    between atoms: _591  and  _592
REMARK  231  A    between atoms: _591  and  _594
REMARK  232  A    between atoms: _594  and  _595
REMARK  233  A    between atoms: _600  and  _601
REMARK  234  A    between atoms: _603  and  _605
REMARK  235  A    between atoms: _605  and  _606
REMARK  236  A    between atoms: _605  and  _608
REMARK  237  A    between atoms: _608  and  _609
REMARK  238  A    between atoms: _611  and  _613
REMARK  239  A    between atoms: _613  and  _614
REMARK  240  A    between atoms: _613  and  _616
REMARK  241  A    between atoms: _616  and  _617
REMARK  242  A    between atoms: _622  and  _624
REMARK  243  A    between atoms: _624  and  _625
REMARK  244  A    between atoms: _624  and  _627
REMARK  245  A    between atoms: _627  and  _628
REMARK  246  A    between atoms: _628  and  _629
REMARK  247  A    between atoms: _632  and  _634
REMARK  248  A    between atoms: _634  and  _635
REMARK  249  A    between atoms: _634  and  _637
REMARK  250  A    between atoms: _637  and  _638
REMARK  251  A    between atoms: _643  and  _644
REMARK  252  A    between atoms: _646  and  _648
REMARK  253  A    between atoms: _648  and  _649
REMARK  254  A    between atoms: _652  and  _654
REMARK  255  A    between atoms: _654  and  _655
REMARK  256  A    between atoms: _654  and  _657
REMARK  257  A    between atoms: _657  and  _658
REMARK  258  A    between atoms: _662  and  _663
REMARK  259  A    between atoms: _668  and  _670
REMARK  260  A    between atoms: _670  and  _671
REMARK  261  A    between atoms: _670  and  _673
REMARK  262  A    between atoms: _673  and  _674
REMARK  263  A    between atoms: _677  and  _679
REMARK  264  A    between atoms: _679  and  _680
REMARK  265  A    between atoms: _679  and  _682
REMARK  266  A    between atoms: _682  and  _683
REMARK  267  A    between atoms: _683  and  _684
REMARK  268  A    between atoms: _689  and  _691
REMARK  269  A    between atoms: _691  and  _692
REMARK  270  A    between atoms: _691  and  _694
REMARK  271  A    between atoms: _694  and  _695
REMARK  272  A    between atoms: _698  and  _700
REMARK  273  A    between atoms: _700  and  _701
REMARK  274  A    between atoms: _700  and  _703
REMARK  275  A    between atoms: _703  and  _704
REMARK  276  A    between atoms: _707  and  _709
REMARK  277  A    between atoms: _709  and  _710
REMARK  278  A    between atoms: _709  and  _712
REMARK  279  A    between atoms: _712  and  _713
REMARK                            x       y       z     vdW  Elec       q    Type
REMARK                         _______ _______ _______ _____ _____    ______ ____
ROOT
ATOM      1  C   TYR A   7     -64.301  -0.272  72.606  0.00  0.00    +0.241 C 
ATOM      2  N   ILE A   8     -64.294   0.139  73.853  0.00  0.00    -0.297 N 
ATOM      3  H   ILE A   8     -63.840  -0.476  74.558  0.00  0.00    +0.150 HD
ATOM      4  O   TYR A   7     -64.808   0.411  71.661  0.00  0.00    -0.273 OA
ENDROOT
BRANCH   2   5
ATOM      5  CA  ILE A   8     -64.871   1.386  74.324  0.00  0.00    +0.149 C 
BRANCH   5   6
ATOM      6  C   ILE A   8     -64.275   2.604  73.697  0.00  0.00    +0.241 C 
ATOM      7  N   GLY A   9     -62.959   2.671  73.593  0.00  0.00    -0.295 N 
ATOM      8  H   GLY A   9     -62.374   1.865  73.893  0.00  0.00    +0.150 HD
ATOM      9  O   ILE A   8     -65.000   3.444  73.250  0.00  0.00    -0.273 OA
BRANCH   7  10
ATOM     10  CA  GLY A   9     -62.317   3.886  73.052  0.00  0.00    +0.176 C 
BRANCH  10  11
ATOM     11  C   GLY A   9     -61.970   3.879  71.571  0.00  0.00    +0.243 C 
ATOM     12  O   GLY A   9     -61.572   4.910  71.014  0.00  0.00    -0.273 OA
ATOM     13  N   TYR A  10     -62.186   2.761  70.911  0.00  0.00    -0.297 N 
ATOM     14  H   TYR A  10     -62.527   1.915  71.410  0.00  0.00    +0.150 HD
BRANCH  13  15
ATOM     15  CA  TYR A  10     -61.947   2.720  69.495  0.00  0.00    +0.153 C 
BRANCH  15  16
ATOM     16  C   TYR A  10     -62.944   1.980  68.595  0.00  0.00    +0.241 C 
ATOM     17  N   LEU A  11     -63.073   0.672  68.775  0.00  0.00    -0.297 N 
ATOM     18  H   LEU A  11     -62.580   0.214  69.568  0.00  0.00    +0.150 HD
ATOM     19  O   TYR A  10     -63.572   2.651  67.745  0.00  0.00    -0.273 OA
BRANCH  17  20
ATOM     20  CA  LEU A  11     -63.863  -0.102  67.915  0.00  0.00    +0.149 C 
BRANCH  20  21
ATOM     21  C   LEU A  11     -65.353   0.360  67.922  0.00  0.00    +0.241 C 
ATOM     22  N   ARG A  12     -65.932   0.572  69.101  0.00  0.00    -0.297 N 
ATOM     23  H   ARG A  12     -65.389   0.451  69.980  0.00  0.00    +0.150 HD
ATOM     24  O   LEU A  11     -65.951   0.485  66.850  0.00  0.00    -0.273 OA
BRANCH  22  25
ATOM     25  CA  ARG A  12     -67.338   0.976  69.154  0.00  0.00    +0.149 C 
BRANCH  25  26
ATOM     26  C   ARG A  12     -67.539   2.402  68.576  0.00  0.00    +0.241 C 
ATOM     27  N   LEU A  13     -66.466   3.171  68.368  0.00  0.00    -0.297 N 
ATOM     28  H   LEU A  13     -65.526   2.799  68.614  0.00  0.00    +0.150 HD
ATOM     29  O   ARG A  12     -68.661   2.779  68.275  0.00  0.00    -0.273 OA
BRANCH  27  30
ATOM     30  CA  LEU A  13     -66.566   4.485  67.820  0.00  0.00    +0.149 C 
BRANCH  30  31
ATOM     31  C   LEU A  13     -66.396   4.483  66.296  0.00  0.00    +0.241 C 
ATOM     32  N   ILE A  14     -65.537   3.632  65.778  0.00  0.00    -0.298 N 
ATOM     33  H   ILE A  14     -65.099   2.912  66.387  0.00  0.00    +0.150 HD
ATOM     34  O   LEU A  13     -66.965   5.311  65.611  0.00  0.00    -0.273 OA
BRANCH  32  35
ATOM     35  CA  ILE A  14     -65.200   3.682  64.404  0.00  0.00    +0.137 C 
BRANCH  35  36
ATOM     36  CB  ILE A  14     -63.707   3.622  64.120  0.00  0.00    +0.026 C 
ATOM     37  CG2 ILE A  14     -62.976   4.811  64.750  0.00  0.00    +0.002 C 
BRANCH  36  38
ATOM     38  CG1 ILE A  14     -63.125   2.271  64.493  0.00  0.00    +0.002 C 
ATOM     39  CD1 ILE A  14     -62.049   1.805  63.513  0.00  0.00    +0.000 C 
ENDBRANCH  36  38
ENDBRANCH  35  36
BRANCH  35  40
ATOM     40  C   ILE A  14     -65.941   2.655  63.549  0.00  0.00    +0.227 C 
ATOM     41  O   ILE A  14     -66.191   2.911  62.407  0.00  0.00    -0.286 OA
ENDBRANCH  35  40
ENDBRANCH  32  35
ENDBRANCH  30  31
BRANCH  30  42
ATOM     42  CB  LEU A  13     -65.497   5.419  68.394  0.00  0.00    +0.029 C 
BRANCH  42  43
ATOM     43  CG  LEU A  13     -65.368   5.567  69.898  0.00  0.00    +0.002 C 
ATOM     44  CD2 LEU A  13     -66.663   6.024  70.538  0.00  0.00    +0.000 C 
ATOM     45  CD1 LEU A  13     -64.213   6.511  70.199  0.00  0.00    +0.000 C 
ENDBRANCH  42  43
ENDBRANCH  30  42
ENDBRANCH  27  30
ENDBRANCH  25  26
BRANCH  25  46
ATOM     46  CB  ARG A  12     -67.965   0.851  70.534  0.00  0.00    +0.033 C 
BRANCH  46  47
ATOM     47  CG  ARG A  12     -67.828   2.080  71.427  0.00  0.00    +0.045 C 
BRANCH  47  48
ATOM     48  CD  ARG A  12     -68.651   1.981  72.691  0.00  0.00    +0.174 C 
BRANCH  48  49
ATOM     49  NE  ARG A  12     -68.198   3.083  73.607  0.00  0.00    -0.265 N 
ATOM     50  CZ  ARG A  12     -68.820   3.421  74.742  0.00  0.00    +0.342 C 
ATOM     51  NH2 ARG A  12     -68.338   4.371  75.569  0.00  0.00    -0.292 N 
ATOM     52 HH21 ARG A  12     -68.849   4.607  76.443  0.00  0.00    +0.255 HD
ATOM     53 HH22 ARG A  12     -67.455   4.867  75.332  0.00  0.00    +0.255 HD
ATOM     54  NH1 ARG A  12     -69.914   2.762  75.087  0.00  0.00    -0.292 N 
ATOM     55 HH11 ARG A  12     -70.414   3.008  75.965  0.00  0.00    +0.255 HD
ATOM     56 HH12 ARG A  12     -70.274   1.998  74.480  0.00  0.00    +0.255 HD
ATOM     57  HE  ARG A  12     -67.346   3.617  73.341  0.00  0.00    +0.259 HD
ENDBRANCH  48  49
ENDBRANCH  47  48
ENDBRANCH  46  47
ENDBRANCH  25  46
ENDBRANCH  22  25
ENDBRANCH  20  21
BRANCH  20  58
ATOM     58  CB  LEU A  11     -63.765  -1.576  68.202  0.00  0.00    +0.029 C 
BRANCH  58  59
ATOM     59  CG  LEU A  11     -62.451  -2.252  68.028  0.00  0.00    +0.002 C 
ATOM     60  CD2 LEU A  11     -62.548  -3.751  68.224  0.00  0.00    +0.000 C 
ATOM     61  CD1 LEU A  11     -61.942  -1.924  66.646  0.00  0.00    +0.000 C 
ENDBRANCH  58  59
ENDBRANCH  20  58
ENDBRANCH  17  20
ENDBRANCH  15  16
BRANCH  15  62
ATOM     62  CB  TYR A  10     -60.588   2.074  69.323  0.00  0.00    +0.055 C 
BRANCH  62  63
ATOM     63  CG  TYR A  10     -60.054   2.093  67.946  0.00  0.00    -0.020 A 
ATOM     64  CD2 TYR A  10     -59.710   0.904  67.292  0.00  0.00    -0.001 A 
ATOM     65  CE2 TYR A  10     -59.162   0.899  66.015  0.00  0.00    +0.036 A 
ATOM     66  CZ  TYR A  10     -58.982   2.094  65.368  0.00  0.00    +0.134 A 
ATOM     67  CE1 TYR A  10     -59.290   3.302  65.991  0.00  0.00    +0.036 A 
ATOM     68  CD1 TYR A  10     -59.846   3.290  67.270  0.00  0.00    -0.001 A 
BRANCH  66  69
ATOM     69  OH  TYR A  10     -58.441   2.099  64.119  0.00  0.00    -0.506 OA
ATOM     70  HH  TYR A  10     -57.537   1.697  64.151  0.00  0.00    +0.292 HD
ENDBRANCH  66  69
ENDBRANCH  62  63
ENDBRANCH  15  62
ENDBRANCH  13  15
ENDBRANCH  10  11
ENDBRANCH   7  10
ENDBRANCH   5   6
BRANCH   5  71
ATOM     71  CB  ILE A   8     -64.712   1.540  75.833  0.00  0.00    +0.027 C 
ATOM     72  CG2 ILE A   8     -65.098   2.967  76.259  0.00  0.00    +0.002 C 
BRANCH  71  73
ATOM     73  CG1 ILE A   8     -65.481   0.497  76.551  0.00  0.00    +0.002 C 
ATOM     74  CD1 ILE A   8     -66.951   0.379  76.083  0.00  0.00    +0.000 C 
ENDBRANCH  71  73
ENDBRANCH   5  71
ENDBRANCH   2   5
BRANCH   1  75
ATOM     75  CA  TYR A   7     -63.669  -1.610  72.347  0.00  0.00    +0.153 C 
BRANCH  75  77
ATOM     76  C   TYR A   6     -61.343  -1.111  72.081  0.00  0.00    +0.241 C 
ATOM     77  N   TYR A   7     -62.291  -1.704  72.754  0.00  0.00    -0.297 N 
ATOM     78  H   TYR A   7     -62.046  -2.255  73.601  0.00  0.00    +0.150 HD
ATOM     79  O   TYR A   6     -61.560  -0.533  71.056  0.00  0.00    -0.273 OA
BRANCH  76  80
ATOM     80  CA  TYR A   6     -59.907  -1.198  72.690  0.00  0.00    +0.153 C 
BRANCH  80  83
ATOM     81  C   SER A   5     -60.458  -0.043  74.806  0.00  0.00    +0.243 C 
ATOM     82  O   SER A   5     -60.800   0.971  74.203  0.00  0.00    -0.273 OA
ATOM     83  N   TYR A   6     -59.954  -1.118  74.167  0.00  0.00    -0.297 N 
ATOM     84  H   TYR A   6     -59.588  -1.914  74.728  0.00  0.00    +0.150 HD
BRANCH  81  85
ATOM     85  CA  SER A   5     -60.501  -0.150  76.317  0.00  0.00    +0.178 C 
BRANCH  85  87
ATOM     86  C   TRP A   4     -62.126  -1.867  76.540  0.00  0.00    +0.241 C 
ATOM     87  N   SER A   5     -60.878  -1.446  76.750  0.00  0.00    -0.295 N 
ATOM     88  H   SER A   5     -60.189  -2.062  77.226  0.00  0.00    +0.150 HD
ATOM     89  O   TRP A   4     -62.967  -1.179  75.956  0.00  0.00    -0.273 OA
BRANCH  86  90
ATOM     90  CA  TRP A   4     -62.467  -3.221  76.970  0.00  0.00    +0.153 C 
BRANCH  90  92
ATOM     91  C   ALA A   3     -60.923  -4.523  75.586  0.00  0.00    +0.241 C 
ATOM     92  N   TRP A   4     -61.337  -4.144  76.767  0.00  0.00    -0.297 N 
ATOM     93  H   TRP A   4     -60.844  -4.513  77.605  0.00  0.00    +0.150 HD
ATOM     94  O   ALA A   3     -61.444  -4.145  74.540  0.00  0.00    -0.273 OA
BRANCH  91  95
ATOM     95  CA  ALA A   3     -59.705  -5.441  75.526  0.00  0.00    +0.149 C 
ATOM     96  CB  ALA A   3     -60.135  -6.846  75.785  0.00  0.00    +0.031 C 
BRANCH  95  98
ATOM     97  C   LEU A   2     -58.063  -3.879  76.372  0.00  0.00    +0.241 C 
ATOM     98  N   ALA A   3     -58.691  -5.030  76.488  0.00  0.00    -0.297 N 
ATOM     99  H   ALA A   3     -58.459  -5.659  77.283  0.00  0.00    +0.150 HD
ATOM    100  O   LEU A   2     -58.263  -3.118  75.485  0.00  0.00    -0.273 OA
BRANCH  97 101
ATOM    101  CA  LEU A   2     -57.006  -3.565  77.435  0.00  0.00    +0.149 C 
BRANCH 101 104
ATOM    102  C   GLY A   1     -58.460  -3.472  79.360  0.00  0.00    +0.240 C 
ATOM    103  O   GLY A   1     -59.109  -2.561  78.863  0.00  0.00    -0.274 OA
ATOM    104  N   LEU A   2     -57.411  -4.014  78.765  0.00  0.00    -0.297 N 
ATOM    105  H   LEU A   2     -56.872  -4.763  79.245  0.00  0.00    +0.150 HD
BRANCH 102 106
ATOM    106  CA  GLY A   1     -58.772  -3.983  80.772  0.00  0.00    +0.169 C 
BRANCH 106 107
ATOM    107  N   GLY A   1     -58.786  -5.387  80.886  0.00  0.00    -0.236 NA
ATOM    108  H   GLY A   1     -58.156  -5.838  81.580  0.00  0.00    +0.142 HD
ENDBRANCH 106 107
ENDBRANCH 102 106
ENDBRANCH 101 104
BRANCH 101 109
ATOM    109  CB  LEU A   2     -55.704  -4.103  77.046  0.00  0.00    +0.029 C 
BRANCH 109 110
ATOM    110  CG  LEU A   2     -54.493  -3.712  77.920  0.00  0.00    +0.002 C 
ATOM    111  CD2 LEU A   2     -54.350  -2.224  77.971  0.00  0.00    +0.000 C 
ATOM    112  CD1 LEU A   2     -53.210  -4.300  77.330  0.00  0.00    +0.000 C 
ENDBRANCH 109 110
ENDBRANCH 101 109
ENDBRANCH  97 101
ENDBRANCH  95  98
ENDBRANCH  91  95
ENDBRANCH  90  92
BRANCH  90 113
ATOM    113  CB  TRP A   4     -62.959  -3.251  78.416  0.00  0.00    +0.057 C 
BRANCH 113 114
ATOM    114  CG  TRP A   4     -63.957  -4.395  78.630  0.00  0.00    -0.002 A 
ATOM    115  CD1 TRP A   4     -63.705  -5.649  79.104  0.00  0.00    +0.068 A 
ATOM    116  NE1 TRP A   4     -64.882  -6.389  79.124  0.00  0.00    -0.352 N 
ATOM    117  HE1 TRP A   4     -64.993  -7.347  79.514  0.00  0.00    +0.166 HD
ATOM    118  CE2 TRP A   4     -65.876  -5.636  78.539  0.00  0.00    +0.056 A 
ATOM    119  CZ2 TRP A   4     -67.206  -5.955  78.281  0.00  0.00    +0.017 A 
ATOM    120  CH2 TRP A   4     -68.011  -4.962  77.764  0.00  0.00    +0.001 A 
ATOM    121  CZ3 TRP A   4     -67.524  -3.716  77.483  0.00  0.00    +0.000 A 
ATOM    122  CE3 TRP A   4     -66.160  -3.411  77.668  0.00  0.00    +0.001 A 
ATOM    123  CD2 TRP A   4     -65.346  -4.361  78.276  0.00  0.00    +0.013 A 
ENDBRANCH 113 114
ENDBRANCH  90 113
ENDBRANCH  86  90
ENDBRANCH  85  87
BRANCH  85 124
ATOM    124  CB  SER A   5     -59.151   0.249  76.966  0.00  0.00    +0.166 C 
BRANCH 124 125
ATOM    125  OG  SER A   5     -58.102   0.451  76.031  0.00  0.00    -0.380 OA
ATOM    126  H   SER A   5     -57.275   0.702  76.514  0.00  0.00    +0.211 HD
ENDBRANCH 124 125
ENDBRANCH  85 124
ENDBRANCH  81  85
ENDBRANCH  80  83
BRANCH  80 127
ATOM    127  CB  TYR A   6     -59.238  -2.440  72.264  0.00  0.00    +0.055 C 
BRANCH 127 128
ATOM    128  CG  TYR A   6     -58.855  -2.530  70.838  0.00  0.00    -0.020 A 
ATOM    129  CD2 TYR A   6     -58.088  -1.547  70.246  0.00  0.00    -0.001 A 
ATOM    130  CE2 TYR A   6     -57.695  -1.644  68.923  0.00  0.00    +0.036 A 
ATOM    131  CZ  TYR A   6     -58.126  -2.713  68.159  0.00  0.00    +0.134 A 
ATOM    132  CE1 TYR A   6     -58.899  -3.672  68.714  0.00  0.00    +0.036 A 
ATOM    133  CD1 TYR A   6     -59.194  -3.612  70.075  0.00  0.00    -0.001 A 
BRANCH 131 134
ATOM    134  OH  TYR A   6     -57.684  -2.796  66.867  0.00  0.00    -0.506 OA
ATOM    135  HH  TYR A   6     -57.136  -1.999  66.655  0.00  0.00    +0.292 HD
ENDBRANCH 131 134
ENDBRANCH 127 128
ENDBRANCH  80 127
ENDBRANCH  76  80
ENDBRANCH  75  77
BRANCH  75 136
ATOM    136  CB  TYR A   7     -64.440  -2.699  72.972  0.00  0.00    +0.055 C 
BRANCH 136 137
ATOM    137  CG  TYR A   7     -65.956  -2.627  72.661  0.00  0.00    -0.020 A 
ATOM    138  CD2 TYR A   7     -66.863  -2.450  73.673  0.00  0.00    -0.001 A 
ATOM    139  CE2 TYR A   7     -68.222  -2.373  73.456  0.00  0.00    +0.036 A 
ATOM    140  CZ  TYR A   7     -68.715  -2.537  72.195  0.00  0.00    +0.134 A 
ATOM    141  CE1 TYR A   7     -67.813  -2.733  71.133  0.00  0.00    +0.036 A 
ATOM    142  CD1 TYR A   7     -66.422  -2.780  71.388  0.00  0.00    -0.001 A 
BRANCH 140 143
ATOM    143  OH  TYR A   7     -70.093  -2.461  71.995  0.00  0.00    -0.506 OA
ATOM    144  HH  TYR A   7     -70.294  -2.599  71.036  0.00  0.00    +0.292 HD
ENDBRANCH 140 143
ENDBRANCH 136 137
ENDBRANCH  75 136
ENDBRANCH   1  75
TORSDOF 55
REMARK  Name = ../refined-set-2016/4loh/4loh_pocket.pdb
REMARK  279 active torsions:
REMARK  status: ('A' for Active; 'I' for Inactive)
REMARK    1  A    between atoms: _1  and  _3
REMARK    2  A    between atoms: _3  and  _4
REMARK    3  A    between atoms: _6  and  _8
REMARK    4  A    between atoms: _8  and  _9
REMARK    5  A    between atoms: _8  and  _11
REMARK    6  A    between atoms: _11  and  _12
REMARK    7  A    between atoms: _15  and  _17
REMARK    8  A    between atoms: _17  and  _18
REMARK    9  A    between atoms: _21  and  _23
REMARK   10  A    between atoms: _23  and  _24
REMARK   11  A    between atoms: _23  and  _26
REMARK   12  A    between atoms: _26  and  _27
REMARK   13  A    between atoms: _37  and  _39
REMARK   14  A    between atoms: _39  and  _40
REMARK   15  A    between atoms: _39  and  _42
REMARK   16  A    between atoms: _42  and  _43
REMARK   17  A    between atoms: _45  and  _47
REMARK   18  A    between atoms: _47  and  _48
REMARK   19  A    between atoms: _47  and  _50
REMARK   20  A    between atoms: _50  and  _51
REMARK   21  A    between atoms: _56  and  _57
REMARK   22  A    between atoms: _59  and  _61
REMARK   23  A    between atoms: _61  and  _62
REMARK   24  A    between atoms: _61  and  _64
REMARK   25  A    between atoms: _64  and  _65
REMARK   26  A    between atoms: _70  and  _71
REMARK   27  A    between atoms: _73  and  _75
REMARK   28  A    between atoms: _75  and  _76
REMARK   29  A    between atoms: _75  and  _78
REMARK   30  A    between atoms: _78  and  _79
REMARK   31  A    between atoms: _82  and  _84
REMARK   32  A    between atoms: _84  and  _85
REMARK   33  A    between atoms: _87  and  _89
REMARK   34  A    between atoms: _89  and  _90
REMARK   35  A    between atoms: _89  and  _92
REMARK   36  A    between atoms: _92  and  _93
REMARK   37  A    between atoms: _98  and  _99
REMARK   38  A    between atoms: _101  and  _103
REMARK   39  A    between atoms: _103  and  _104
REMARK   40  A    between atoms: _103  and  _106
REMARK   41  A    between atoms: _106  and  _107
REMARK   42  A    between atoms: _110  and  _112
REMARK   43  A    between atoms: _112  and  _113
REMARK   44  A    between atoms: _112  and  _115
REMARK   45  A    between atoms: _115  and  _116
REMARK   46  A    between atoms: _116  and  _117
REMARK   47  A    between atoms: _117  and  _118
REMARK   48  A    between atoms: _127  and  _129
REMARK   49  A    between atoms: _129  and  _130
REMARK   50  A    between atoms: _129  and  _132
REMARK   51  A    between atoms: _132  and  _133
REMARK   52  A    between atoms: _136  and  _138
REMARK   53  A    between atoms: _138  and  _139
REMARK   54  A    between atoms: _138  and  _141
REMARK   55  A    between atoms: _141  and  _142
REMARK   56  A    between atoms: _145  and  _147
REMARK   57  A    between atoms: _147  and  _148
REMARK   58  A    between atoms: _147  and  _150
REMARK   59  A    between atoms: _150  and  _151
REMARK   60  A    between atoms: _151  and  _152
REMARK   61  A    between atoms: _157  and  _159
REMARK   62  A    between atoms: _159  and  _160
REMARK   63  A    between atoms: _159  and  _162
REMARK   64  A    between atoms: _162  and  _163
REMARK   65  A    between atoms: _168  and  _170
REMARK   66  A    between atoms: _170  and  _171
REMARK   67  A    between atoms: _174  and  _176
REMARK   68  A    between atoms: _176  and  _177
REMARK   69  A    between atoms: _179  and  _181
REMARK   70  A    between atoms: _181  and  _182
REMARK   71  A    between atoms: _181  and  _184
REMARK   72  A    between atoms: _184  and  _185
REMARK   73  A    between atoms: _188  and  _190
REMARK   74  A    between atoms: _190  and  _191
REMARK   75  A    between atoms: _190  and  _193
REMARK   76  A    between atoms: _193  and  _194
REMARK   77  A    between atoms: _194  and  _195
REMARK   78  A    between atoms: _195  and  _196
REMARK   79  A    between atoms: _205  and  _207
REMARK   80  A    between atoms: _207  and  _208
REMARK   81  A    between atoms: _207  and  _210
REMARK   82  A    between atoms: _213  and  _215
REMARK   83  A    between atoms: _215  and  _216
REMARK   84  A    between atoms: _215  and  _218
REMARK   85  A    between atoms: _218  and  _219
REMARK   86  A    between atoms: _224  and  _225
REMARK   87  A    between atoms: _227  and  _229
REMARK   88  A    between atoms: _229  and  _230
REMARK   89  A    between atoms: _229  and  _232
REMARK   90  A    between atoms: _232  and  _233
REMARK   91  A    between atoms: _235  and  _237
REMARK   92  A    between atoms: _237  and  _238
REMARK   93  A    between atoms: _237  and  _240
REMARK   94  A    between atoms: _240  and  _241
REMARK   95  A    between atoms: _246  and  _248
REMARK   96  A    between atoms: _248  and  _249
REMARK   97  A    between atoms: _248  and  _251
REMARK   98  A    between atoms: _251  and  _252
REMARK   99  A    between atoms: _252  and  _253
REMARK  100  A    between atoms: _256  and  _258
REMARK  101  A    between atoms: _258  and  _259
REMARK  102  A    between atoms: _258  and  _261
REMARK  103  A    between atoms: _261  and  _262
REMARK  104  A    between atoms: _267  and  _268
REMARK  105  A    between atoms: _270  and  _272
REMARK  106  A    between atoms: _272  and  _273
REMARK  107  A    between atoms: _276  and  _278
REMARK  108  A    between atoms: _278  and  _279
REMARK  109  A    between atoms: _278  and  _281
REMARK  110  A    between atoms: _281  and  _282
REMARK  111  A    between atoms: _286  and  _287
REMARK  112  A    between atoms: _292  and  _294
REMARK  113  A    between atoms: _294  and  _295
REMARK  114  A    between atoms: _294  and  _297
REMARK  115  A    between atoms: _297  and  _298
REMARK  116  A    between atoms: _301  and  _303
REMARK  117  A    between atoms: _303  and  _304
REMARK  118  A    between atoms: _303  and  _306
REMARK  119  A    between atoms: _306  and  _307
REMARK  120  A    between atoms: _307  and  _308
REMARK  121  A    between atoms: _313  and  _315
REMARK  122  A    between atoms: _315  and  _316
REMARK  123  A    between atoms: _315  and  _318
REMARK  124  A    between atoms: _318  and  _319
REMARK  125  A    between atoms: _322  and  _324
REMARK  126  A    between atoms: _324  and  _325
REMARK  127  A    between atoms: _324  and  _327
REMARK  128  A    between atoms: _327  and  _328
REMARK  129  A    between atoms: _331  and  _333
REMARK  130  A    between atoms: _333  and  _334
REMARK  131  A    between atoms: _333  and  _336
REMARK  132  A    between atoms: _336  and  _337
REMARK  133  A    between atoms: _343  and  _345
REMARK  134  A    between atoms: _345  and  _346
REMARK  135  A    between atoms: _348  and  _350
REMARK  136  A    between atoms: _350  and  _351
REMARK  137  A    between atoms: _350  and  _353
REMARK  138  A    between atoms: _353  and  _354
REMARK  139  A    between atoms: _357  and  _359
REMARK  140  A    between atoms: _359  and  _360
REMARK  141  A    between atoms: _363  and  _365
REMARK  142  A    between atoms: _365  and  _366
REMARK  143  A    between atoms: _365  and  _368
REMARK  144  A    between atoms: _368  and  _369
REMARK  145  A    between atoms: _379  and  _381
REMARK  146  A    between atoms: _381  and  _382
REMARK  147  A    between atoms: _381  and  _384
REMARK  148  A    between atoms: _384  and  _385
REMARK  149  A    between atoms: _387  and  _389
REMARK  150  A    between atoms: _389  and  _390
REMARK  151  A    between atoms: _389  and  _392
REMARK  152  A    between atoms: _392  and  _393
REMARK  153  A    between atoms: _398  and  _399
REMARK  154  A    between atoms: _401  and  _403
REMARK  155  A    between atoms: _403  and  _404
REMARK  156  A    between atoms: _403  and  _406
REMARK  157  A    between atoms: _406  and  _407
REMARK  158  A    between atoms: _412  and  _413
REMARK  159  A    between atoms: _415  and  _417
REMARK  160  A    between atoms: _417  and  _418
REMARK  161  A    between atoms: _417  and  _420
REMARK  162  A    between atoms: _420  and  _421
REMARK  163  A    between atoms: _424  and  _426
REMARK  164  A    between atoms: _426  and  _427
REMARK  165  A    between atoms: _429  and  _431
REMARK  166  A    between atoms: _431  and  _432
REMARK  167  A    between atoms: _431  and  _434
REMARK  168  A    between atoms: _434  and  _435
REMARK  169  A    between atoms: _440  and  _441
REMARK  170  A    between atoms: _443  and  _445
REMARK  171  A    between atoms: _445  and  _446
REMARK  172  A    between atoms: _445  and  _448
REMARK  173  A    between atoms: _448  and  _449
REMARK  174  A    between atoms: _452  and  _454
REMARK  175  A    between atoms: _454  and  _455
REMARK  176  A    between atoms: _454  and  _457
REMARK  177  A    between atoms: _457  and  _458
REMARK  178  A    between atoms: _458  and  _459
REMARK  179  A    between atoms: _459  and  _460
REMARK  180  A    between atoms: _469  and  _471
REMARK  181  A    between atoms: _471  and  _472
REMARK  182  A    between atoms: _471  and  _474
REMARK  183  A    between atoms: _474  and  _475
REMARK  184  A    between atoms: _478  and  _480
REMARK  185  A    between atoms: _480  and  _481
REMARK  186  A    between atoms: _480  and  _483
REMARK  187  A    between atoms: _483  and  _484
REMARK  188  A    between atoms: _487  and  _489
REMARK  189  A    between atoms: _489  and  _490
REMARK  190  A    between atoms: _489  and  _492
REMARK  191  A    between atoms: _492  and  _493
REMARK  192  A    between atoms: _493  and  _494
REMARK  193  A    between atoms: _494  and  _495
REMARK  194  A    between atoms: _504  and  _506
REMARK  195  A    between atoms: _506  and  _507
REMARK  196  A    between atoms: _506  and  _509
REMARK  197  A    between atoms: _509  and  _510
REMARK  198  A    between atoms: _513  and  _515
REMARK  199  A    between atoms: _515  and  _516
REMARK  200  A    between atoms: _515  and  _518
REMARK  201  A    between atoms: _518  and  _519
REMARK  202  A    between atoms: _519  and  _520
REMARK  203  A    between atoms: _520  and  _521
REMARK  204  A    between atoms: _521  and  _522
REMARK  205  A    between atoms: _526  and  _528
REMARK  206  A    between atoms: _528  and  _529
REMARK  207  A    between atoms: _528  and  _531
REMARK  208  A    between atoms: _531  and  _532
REMARK  209  A    between atoms: _532  and  _533
REMARK  210  A    between atoms: _538  and  _540
REMARK  211  A    between atoms: _540  and  _541
REMARK  212  A    between atoms: _540  and  _543
REMARK  213  A    between atoms: _543  and  _544
REMARK  214  A    between atoms: _549  and  _551
REMARK  215  A    between atoms: _551  and  _552
REMARK  216  A    between atoms: _555  and  _557
REMARK  217  A    between atoms: _557  and  _558
REMARK  218  A    between atoms: _557  and  _560
REMARK  219  A    between atoms: _560  and  _561
REMARK  220  A    between atoms: _564  and  _566
REMARK  221  A    between atoms: _566  and  _567
REMARK  222  A    between atoms: _566  and  _569
REMARK  223  A    between atoms: _569  and  _570
REMARK  224  A    between atoms: _570  and  _571
REMARK  225  A    between atoms: _571  and  _572
REMARK  226  A    between atoms: _581  and  _583
REMARK  227  A    between atoms: _583  and  _584
REMARK  228  A    between atoms: _583  and  _586
REMARK  229  A    between atoms: _589  and  _591
REMARK  230  A    between atoms: _591  and  _592
REMARK  231  A    between atoms: _591  and  _594
REMARK  232  A    between atoms: _594  and  _595
REMARK  233  A    between atoms: _600  and  _601
REMARK  234  A    between atoms: _603  and  _605
REMARK  235  A    between atoms: _605  and  _606
REMARK  236  A    between atoms: _605  and  _608
REMARK  237  A    between atoms: _608  and  _609
REMARK  238  A    between atoms: _611  and  _613
REMARK  239  A    between atoms: _613  and  _614
REMARK  240  A    between atoms: _613  and  _616
REMARK  241  A    between atoms: _616  and  _617
REMARK  242  A    between atoms: _622  and  _624
REMARK  243  A    between atoms: _624  and  _625
REMARK  244  A    between atoms: _624  and  _627
REMARK  245  A    between atoms: _627  and  _628
REMARK  246  A    between atoms: _628  and  _629
REMARK  247  A    between atoms: _632  and  _634
REMARK  248  A    between atoms: _634  and  _635
REMARK  249  A    between atoms: _634  and  _637
REMARK  250  A    between atoms: _637  and  _638
REMARK  251  A    between atoms: _643  and  _644
REMARK  252  A    between atoms: _646  and  _648
REMARK  253  A    between atoms: _648  and  _649
REMARK  254  A    between atoms: _652  and  _654
REMARK  255  A    between atoms: _654  and  _655
REMARK  256  A    between atoms: _654  and  _657
REMARK  257  A    between atoms: _657  and  _658
REMARK  258  A    between atoms: _662  and  _663
REMARK  259  A    between atoms: _668  and  _670
REMARK  260  A    between atoms: _670  and  _671
REMARK  261  A    between atoms: _670  and  _673
REMARK  262  A    between atoms: _673  and  _674
REMARK  263  A    between atoms: _677  and  _679
REMARK  264  A    between atoms: _679  and  _680
REMARK  265  A    between atoms: _679  and  _682
REMARK  266  A    between atoms: _682  and  _683
REMARK  267  A    between atoms: _683  and  _684
REMARK  268  A    between atoms: _689  and  _691
REMARK  269  A    between atoms: _691  and  _692
REMARK  270  A    between atoms: _691  and  _694
REMARK  271  A    between atoms: _694  and  _695
REMARK  272  A    between atoms: _698  and  _700
REMARK  273  A    between atoms: _700  and  _701
REMARK  274  A    between atoms: _700  and  _703
REMARK  275  A    between atoms: _703  and  _704
REMARK  276  A    between atoms: _707  and  _709
REMARK  277  A    between atoms: _709  and  _710
REMARK  278  A    between atoms: _709  and  _712
REMARK  279  A    between atoms: _712  and  _713
REMARK                            x       y       z     vdW  Elec       q    Type
REMARK                         _______ _______ _______ _____ _____    ______ ____
ROOT
ATOM      1  CB  GLN A   1     -63.472   9.155  61.748  0.00  0.00    +0.035 C 
ENDROOT
BRANCH   1   2
ATOM      2  CA  GLN A   1     -63.021  10.510  61.238  0.00  0.00    +0.134 C 
BRANCH   2   3
ATOM      3  N   GLN A   1     -61.868  10.328  60.399  0.00  0.00    -0.239 NA
ATOM      4  H   GLN A   1     -61.083   9.727  60.723  0.00  0.00    +0.142 HD
ENDBRANCH   2   3
BRANCH   2   5
ATOM      5  C   GLN A   1     -62.617  11.403  62.418  0.00  0.00    +0.224 C 
ATOM      6  O   GLN A   1     -61.549  11.211  63.020  0.00  0.00    -0.287 OA
ENDBRANCH   2   5
ENDBRANCH   1   2
BRANCH   1   7
ATOM      7  CG  GLN A   1     -64.711   9.215  62.624  0.00  0.00    +0.087 C 
BRANCH   7   8
ATOM      8  CD  GLN A   1     -65.339   7.851  62.913  0.00  0.00    +0.219 C 
ATOM      9  NE2 GLN A   1     -65.741   7.649  64.162  0.00  0.00    -0.329 N 
ATOM     10 HE21 GLN A   1     -65.570   8.375  64.887  0.00  0.00    +0.145 HD
ATOM     11 HE22 GLN A   1     -66.227   6.765  64.415  0.00  0.00    +0.145 HD
ATOM     12  OE1 GLN A   1     -65.520   7.024  62.029  0.00  0.00    -0.275 OA
ENDBRANCH   7   8
ENDBRANCH   1   7
TORSDOF 5
REMARK  Name = ../refined-set-2016/4loh/4loh_pocket.pdb
REMARK  279 active torsions:
REMARK  status: ('A' for Active; 'I' for Inactive)
REMARK    1  A    between atoms: _1  and  _3
REMARK    2  A    between atoms: _3  and  _4
REMARK    3  A    between atoms: _6  and  _8
REMARK    4  A    between atoms: _8  and  _9
REMARK    5  A    between atoms: _8  and  _11
REMARK    6  A    between atoms: _11  and  _12
REMARK    7  A    between atoms: _15  and  _17
REMARK    8  A    between atoms: _17  and  _18
REMARK    9  A    between atoms: _21  and  _23
REMARK   10  A    between atoms: _23  and  _24
REMARK   11  A    between atoms: _23  and  _26
REMARK   12  A    between atoms: _26  and  _27
REMARK   13  A    between atoms: _37  and  _39
REMARK   14  A    between atoms: _39  and  _40
REMARK   15  A    between atoms: _39  and  _42
REMARK   16  A    between atoms: _42  and  _43
REMARK   17  A    between atoms: _45  and  _47
REMARK   18  A    between atoms: _47  and  _48
REMARK   19  A    between atoms: _47  and  _50
REMARK   20  A    between atoms: _50  and  _51
REMARK   21  A    between atoms: _56  and  _57
REMARK   22  A    between atoms: _59  and  _61
REMARK   23  A    between atoms: _61  and  _62
REMARK   24  A    between atoms: _61  and  _64
REMARK   25  A    between atoms: _64  and  _65
REMARK   26  A    between atoms: _70  and  _71
REMARK   27  A    between atoms: _73  and  _75
REMARK   28  A    between atoms: _75  and  _76
REMARK   29  A    between atoms: _75  and  _78
REMARK   30  A    between atoms: _78  and  _79
REMARK   31  A    between atoms: _82  and  _84
REMARK   32  A    between atoms: _84  and  _85
REMARK   33  A    between atoms: _87  and  _89
REMARK   34  A    between atoms: _89  and  _90
REMARK   35  A    between atoms: _89  and  _92
REMARK   36  A    between atoms: _92  and  _93
REMARK   37  A    between atoms: _98  and  _99
REMARK   38  A    between atoms: _101  and  _103
REMARK   39  A    between atoms: _103  and  _104
REMARK   40  A    between atoms: _103  and  _106
REMARK   41  A    between atoms: _106  and  _107
REMARK   42  A    between atoms: _110  and  _112
REMARK   43  A    between atoms: _112  and  _113
REMARK   44  A    between atoms: _112  and  _115
REMARK   45  A    between atoms: _115  and  _116
REMARK   46  A    between atoms: _116  and  _117
REMARK   47  A    between atoms: _117  and  _118
REMARK   48  A    between atoms: _127  and  _129
REMARK   49  A    between atoms: _129  and  _130
REMARK   50  A    between atoms: _129  and  _132
REMARK   51  A    between atoms: _132  and  _133
REMARK   52  A    between atoms: _136  and  _138
REMARK   53  A    between atoms: _138  and  _139
REMARK   54  A    between atoms: _138  and  _141
REMARK   55  A    between atoms: _141  and  _142
REMARK   56  A    between atoms: _145  and  _147
REMARK   57  A    between atoms: _147  and  _148
REMARK   58  A    between atoms: _147  and  _150
REMARK   59  A    between atoms: _150  and  _151
REMARK   60  A    between atoms: _151  and  _152
REMARK   61  A    between atoms: _157  and  _159
REMARK   62  A    between atoms: _159  and  _160
REMARK   63  A    between atoms: _159  and  _162
REMARK   64  A    between atoms: _162  and  _163
REMARK   65  A    between atoms: _168  and  _170
REMARK   66  A    between atoms: _170  and  _171
REMARK   67  A    between atoms: _174  and  _176
REMARK   68  A    between atoms: _176  and  _177
REMARK   69  A    between atoms: _179  and  _181
REMARK   70  A    between atoms: _181  and  _182
REMARK   71  A    between atoms: _181  and  _184
REMARK   72  A    between atoms: _184  and  _185
REMARK   73  A    between atoms: _188  and  _190
REMARK   74  A    between atoms: _190  and  _191
REMARK   75  A    between atoms: _190  and  _193
REMARK   76  A    between atoms: _193  and  _194
REMARK   77  A    between atoms: _194  and  _195
REMARK   78  A    between atoms: _195  and  _196
REMARK   79  A    between atoms: _205  and  _207
REMARK   80  A    between atoms: _207  and  _208
REMARK   81  A    between atoms: _207  and  _210
REMARK   82  A    between atoms: _213  and  _215
REMARK   83  A    between atoms: _215  and  _216
REMARK   84  A    between atoms: _215  and  _218
REMARK   85  A    between atoms: _218  and  _219
REMARK   86  A    between atoms: _224  and  _225
REMARK   87  A    between atoms: _227  and  _229
REMARK   88  A    between atoms: _229  and  _230
REMARK   89  A    between atoms: _229  and  _232
REMARK   90  A    between atoms: _232  and  _233
REMARK   91  A    between atoms: _235  and  _237
REMARK   92  A    between atoms: _237  and  _238
REMARK   93  A    between atoms: _237  and  _240
REMARK   94  A    between atoms: _240  and  _241
REMARK   95  A    between atoms: _246  and  _248
REMARK   96  A    between atoms: _248  and  _249
REMARK   97  A    between atoms: _248  and  _251
REMARK   98  A    between atoms: _251  and  _252
REMARK   99  A    between atoms: _252  and  _253
REMARK  100  A    between atoms: _256  and  _258
REMARK  101  A    between atoms: _258  and  _259
REMARK  102  A    between atoms: _258  and  _261
REMARK  103  A    between atoms: _261  and  _262
REMARK  104  A    between atoms: _267  and  _268
REMARK  105  A    between atoms: _270  and  _272
REMARK  106  A    between atoms: _272  and  _273
REMARK  107  A    between atoms: _276  and  _278
REMARK  108  A    between atoms: _278  and  _279
REMARK  109  A    between atoms: _278  and  _281
REMARK  110  A    between atoms: _281  and  _282
REMARK  111  A    between atoms: _286  and  _287
REMARK  112  A    between atoms: _292  and  _294
REMARK  113  A    between atoms: _294  and  _295
REMARK  114  A    between atoms: _294  and  _297
REMARK  115  A    between atoms: _297  and  _298
REMARK  116  A    between atoms: _301  and  _303
REMARK  117  A    between atoms: _303  and  _304
REMARK  118  A    between atoms: _303  and  _306
REMARK  119  A    between atoms: _306  and  _307
REMARK  120  A    between atoms: _307  and  _308
REMARK  121  A    between atoms: _313  and  _315
REMARK  122  A    between atoms: _315  and  _316
REMARK  123  A    between atoms: _315  and  _318
REMARK  124  A    between atoms: _318  and  _319
REMARK  125  A    between atoms: _322  and  _324
REMARK  126  A    between atoms: _324  and  _325
REMARK  127  A    between atoms: _324  and  _327
REMARK  128  A    between atoms: _327  and  _328
REMARK  129  A    between atoms: _331  and  _333
REMARK  130  A    between atoms: _333  and  _334
REMARK  131  A    between atoms: _333  and  _336
REMARK  132  A    between atoms: _336  and  _337
REMARK  133  A    between atoms: _343  and  _345
REMARK  134  A    between atoms: _345  and  _346
REMARK  135  A    between atoms: _348  and  _350
REMARK  136  A    between atoms: _350  and  _351
REMARK  137  A    between atoms: _350  and  _353
REMARK  138  A    between atoms: _353  and  _354
REMARK  139  A    between atoms: _357  and  _359
REMARK  140  A    between atoms: _359  and  _360
REMARK  141  A    between atoms: _363  and  _365
REMARK  142  A    between atoms: _365  and  _366
REMARK  143  A    between atoms: _365  and  _368
REMARK  144  A    between atoms: _368  and  _369
REMARK  145  A    between atoms: _379  and  _381
REMARK  146  A    between atoms: _381  and  _382
REMARK  147  A    between atoms: _381  and  _384
REMARK  148  A    between atoms: _384  and  _385
REMARK  149  A    between atoms: _387  and  _389
REMARK  150  A    between atoms: _389  and  _390
REMARK  151  A    between atoms: _389  and  _392
REMARK  152  A    between atoms: _392  and  _393
REMARK  153  A    between atoms: _398  and  _399
REMARK  154  A    between atoms: _401  and  _403
REMARK  155  A    between atoms: _403  and  _404
REMARK  156  A    between atoms: _403  and  _406
REMARK  157  A    between atoms: _406  and  _407
REMARK  158  A    between atoms: _412  and  _413
REMARK  159  A    between atoms: _415  and  _417
REMARK  160  A    between atoms: _417  and  _418
REMARK  161  A    between atoms: _417  and  _420
REMARK  162  A    between atoms: _420  and  _421
REMARK  163  A    between atoms: _424  and  _426
REMARK  164  A    between atoms: _426  and  _427
REMARK  165  A    between atoms: _429  and  _431
REMARK  166  A    between atoms: _431  and  _432
REMARK  167  A    between atoms: _431  and  _434
REMARK  168  A    between atoms: _434  and  _435
REMARK  169  A    between atoms: _440  and  _441
REMARK  170  A    between atoms: _443  and  _445
REMARK  171  A    between atoms: _445  and  _446
REMARK  172  A    between atoms: _445  and  _448
REMARK  173  A    between atoms: _448  and  _449
REMARK  174  A    between atoms: _452  and  _454
REMARK  175  A    between atoms: _454  and  _455
REMARK  176  A    between atoms: _454  and  _457
REMARK  177  A    between atoms: _457  and  _458
REMARK  178  A    between atoms: _458  and  _459
REMARK  179  A    between atoms: _459  and  _460
REMARK  180  A    between atoms: _469  and  _471
REMARK  181  A    between atoms: _471  and  _472
REMARK  182  A    between atoms: _471  and  _474
REMARK  183  A    between atoms: _474  and  _475
REMARK  184  A    between atoms: _478  and  _480
REMARK  185  A    between atoms: _480  and  _481
REMARK  186  A    between atoms: _480  and  _483
REMARK  187  A    between atoms: _483  and  _484
REMARK  188  A    between atoms: _487  and  _489
REMARK  189  A    between atoms: _489  and  _490
REMARK  190  A    between atoms: _489  and  _492
REMARK  191  A    between atoms: _492  and  _493
REMARK  192  A    between atoms: _493  and  _494
REMARK  193  A    between atoms: _494  and  _495
REMARK  194  A    between atoms: _504  and  _506
REMARK  195  A    between atoms: _506  and  _507
REMARK  196  A    between atoms: _506  and  _509
REMARK  197  A    between atoms: _509  and  _510
REMARK  198  A    between atoms: _513  and  _515
REMARK  199  A    between atoms: _515  and  _516
REMARK  200  A    between atoms: _515  and  _518
REMARK  201  A    between atoms: _518  and  _519
REMARK  202  A    between atoms: _519  and  _520
REMARK  203  A    between atoms: _520  and  _521
REMARK  204  A    between atoms: _521  and  _522
REMARK  205  A    between atoms: _526  and  _528
REMARK  206  A    between atoms: _528  and  _529
REMARK  207  A    between atoms: _528  and  _531
REMARK  208  A    between atoms: _531  and  _532
REMARK  209  A    between atoms: _532  and  _533
REMARK  210  A    between atoms: _538  and  _540
REMARK  211  A    between atoms: _540  and  _541
REMARK  212  A    between atoms: _540  and  _543
REMARK  213  A    between atoms: _543  and  _544
REMARK  214  A    between atoms: _549  and  _551
REMARK  215  A    between atoms: _551  and  _552
REMARK  216  A    between atoms: _555  and  _557
REMARK  217  A    between atoms: _557  and  _558
REMARK  218  A    between atoms: _557  and  _560
REMARK  219  A    between atoms: _560  and  _561
REMARK  220  A    between atoms: _564  and  _566
REMARK  221  A    between atoms: _566  and  _567
REMARK  222  A    between atoms: _566  and  _569
REMARK  223  A    between atoms: _569  and  _570
REMARK  224  A    between atoms: _570  and  _571
REMARK  225  A    between atoms: _571  and  _572
REMARK  226  A    between atoms: _581  and  _583
REMARK  227  A    between atoms: _583  and  _584
REMARK  228  A    between atoms: _583  and  _586
REMARK  229  A    between atoms: _589  and  _591
REMARK  230  A    between atoms: _591  and  _592
REMARK  231  A    between atoms: _591  and  _594
REMARK  232  A    between atoms: _594  and  _595
REMARK  233  A    between atoms: _600  and  _601
REMARK  234  A    between atoms: _603  and  _605
REMARK  235  A    between atoms: _605  and  _606
REMARK  236  A    between atoms: _605  and  _608
REMARK  237  A    between atoms: _608  and  _609
REMARK  238  A    between atoms: _611  and  _613
REMARK  239  A    between atoms: _613  and  _614
REMARK  240  A    between atoms: _613  and  _616
REMARK  241  A    between atoms: _616  and  _617
REMARK  242  A    between atoms: _622  and  _624
REMARK  243  A    between atoms: _624  and  _625
REMARK  244  A    between atoms: _624  and  _627
REMARK  245  A    between atoms: _627  and  _628
REMARK  246  A    between atoms: _628  and  _629
REMARK  247  A    between atoms: _632  and  _634
REMARK  248  A    between atoms: _634  and  _635
REMARK  249  A    between atoms: _634  and  _637
REMARK  250  A    between atoms: _637  and  _638
REMARK  251  A    between atoms: _643  and  _644
REMARK  252  A    between atoms: _646  and  _648
REMARK  253  A    between atoms: _648  and  _649
REMARK  254  A    between atoms: _652  and  _654
REMARK  255  A    between atoms: _654  and  _655
REMARK  256  A    between atoms: _654  and  _657
REMARK  257  A    between atoms: _657  and  _658
REMARK  258  A    between atoms: _662  and  _663
REMARK  259  A    between atoms: _668  and  _670
REMARK  260  A    between atoms: _670  and  _671
REMARK  261  A    between atoms: _670  and  _673
REMARK  262  A    between atoms: _673  and  _674
REMARK  263  A    between atoms: _677  and  _679
REMARK  264  A    between atoms: _679  and  _680
REMARK  265  A    between atoms: _679  and  _682
REMARK  266  A    between atoms: _682  and  _683
REMARK  267  A    between atoms: _683  and  _684
REMARK  268  A    between atoms: _689  and  _691
REMARK  269  A    between atoms: _691  and  _692
REMARK  270  A    between atoms: _691  and  _694
REMARK  271  A    between atoms: _694  and  _695
REMARK  272  A    between atoms: _698  and  _700
REMARK  273  A    between atoms: _700  and  _701
REMARK  274  A    between atoms: _700  and  _703
REMARK  275  A    between atoms: _703  and  _704
REMARK  276  A    between atoms: _707  and  _709
REMARK  277  A    between atoms: _709  and  _710
REMARK  278  A    between atoms: _709  and  _712
REMARK  279  A    between atoms: _712  and  _713
REMARK                            x       y       z     vdW  Elec       q    Type
REMARK                         _______ _______ _______ _____ _____    ______ ____
ROOT
ATOM      1  C   ALA A   2     -61.577  15.039  76.878  0.00  0.00    +0.241 C 
ATOM      2  O   ALA A   2     -60.473  15.236  77.362  0.00  0.00    -0.273 OA
ATOM      3  N   GLY A   3     -62.281  15.978  76.278  0.00  0.00    -0.295 N 
ATOM      4  H   GLY A   3     -63.155  15.728  75.773  0.00  0.00    +0.150 HD
ENDROOT
BRANCH   1   5
ATOM      5  CA  ALA A   2     -62.200  13.664  76.846  0.00  0.00    +0.149 C 
ATOM      6  CB  ALA A   2     -61.143  12.630  77.105  0.00  0.00    +0.031 C 
BRANCH   5   8
ATOM      7  C   HIS A   1     -62.359  13.551  74.372  0.00  0.00    +0.239 C 
ATOM      8  N   ALA A   2     -62.870  13.375  75.584  0.00  0.00    -0.297 N 
ATOM      9  H   ALA A   2     -63.837  12.996  75.638  0.00  0.00    +0.150 HD
ATOM     10  O   HIS A   1     -61.307  14.062  74.150  0.00  0.00    -0.274 OA
BRANCH   7  11
ATOM     11  CA  HIS A   1     -63.215  13.103  73.241  0.00  0.00    +0.151 C 
BRANCH  11  12
ATOM     12  N   HIS A   1     -63.425  14.182  72.276  0.00  0.00    -0.238 NA
ATOM     13  H   HIS A   1     -62.670  14.882  72.131  0.00  0.00    +0.142 HD
ENDBRANCH  11  12
BRANCH  11  14
ATOM     14  CB  HIS A   1     -62.590  11.864  72.609  0.00  0.00    +0.074 C 
BRANCH  14  15
ATOM     15  CG  HIS A   1     -63.403  11.264  71.526  0.00  0.00    +0.082 A 
ATOM     16  ND1 HIS A   1     -64.056  10.069  71.668  0.00  0.00    -0.227 NA
ATOM     17  CE1 HIS A   1     -64.719   9.793  70.562  0.00  0.00    +0.199 A 
ATOM     18  NE2 HIS A   1     -64.518  10.765  69.706  0.00  0.00    -0.221 NA
ATOM     19  CD2 HIS A   1     -63.690  11.693  70.278  0.00  0.00    +0.115 A 
ENDBRANCH  14  15
ENDBRANCH  11  14
ENDBRANCH   7  11
ENDBRANCH   5   8
ENDBRANCH   1   5
BRANCH   3  20
ATOM     20  CA  GLY A   3     -61.835  17.372  76.321  0.00  0.00    +0.176 C 
BRANCH  20  21
ATOM     21  C   GLY A   3     -60.847  17.690  75.210  0.00  0.00    +0.243 C 
ATOM     22  O   GLY A   3     -60.216  18.747  75.202  0.00  0.00    -0.273 OA
ATOM     23  N   ILE A   4     -60.691  16.771  74.251  0.00  0.00    -0.298 N 
ATOM     24  H   ILE A   4     -61.164  15.848  74.333  0.00  0.00    +0.150 HD
BRANCH  23  25
ATOM     25  CA  ILE A   4     -59.854  17.065  73.085  0.00  0.00    +0.137 C 
BRANCH  25  26
ATOM     26  CB  ILE A   4     -58.832  15.962  72.734  0.00  0.00    +0.026 C 
ATOM     27  CG2 ILE A   4     -58.174  16.226  71.367  0.00  0.00    +0.002 C 
BRANCH  26  28
ATOM     28  CG1 ILE A   4     -57.780  15.884  73.866  0.00  0.00    +0.002 C 
ATOM     29  CD1 ILE A   4     -56.773  14.801  73.684  0.00  0.00    +0.000 C 
ENDBRANCH  26  28
ENDBRANCH  25  26
BRANCH  25  30
ATOM     30  C   ILE A   4     -60.778  17.339  71.944  0.00  0.00    +0.227 C 
ATOM     31  O   ILE A   4     -61.635  16.529  71.591  0.00  0.00    -0.286 OA
ENDBRANCH  25  30
ENDBRANCH  23  25
ENDBRANCH  20  21
ENDBRANCH   3  20
TORSDOF 12
REMARK  Name = ../refined-set-2016/4loh/4loh_pocket.pdb
REMARK  279 active torsions:
REMARK  status: ('A' for Active; 'I' for Inactive)
REMARK    1  A    between atoms: _1  and  _3
REMARK    2  A    between atoms: _3  and  _4
REMARK    3  A    between atoms: _6  and  _8
REMARK    4  A    between atoms: _8  and  _9
REMARK    5  A    between atoms: _8  and  _11
REMARK    6  A    between atoms: _11  and  _12
REMARK    7  A    between atoms: _15  and  _17
REMARK    8  A    between atoms: _17  and  _18
REMARK    9  A    between atoms: _21  and  _23
REMARK   10  A    between atoms: _23  and  _24
REMARK   11  A    between atoms: _23  and  _26
REMARK   12  A    between atoms: _26  and  _27
REMARK   13  A    between atoms: _37  and  _39
REMARK   14  A    between atoms: _39  and  _40
REMARK   15  A    between atoms: _39  and  _42
REMARK   16  A    between atoms: _42  and  _43
REMARK   17  A    between atoms: _45  and  _47
REMARK   18  A    between atoms: _47  and  _48
REMARK   19  A    between atoms: _47  and  _50
REMARK   20  A    between atoms: _50  and  _51
REMARK   21  A    between atoms: _56  and  _57
REMARK   22  A    between atoms: _59  and  _61
REMARK   23  A    between atoms: _61  and  _62
REMARK   24  A    between atoms: _61  and  _64
REMARK   25  A    between atoms: _64  and  _65
REMARK   26  A    between atoms: _70  and  _71
REMARK   27  A    between atoms: _73  and  _75
REMARK   28  A    between atoms: _75  and  _76
REMARK   29  A    between atoms: _75  and  _78
REMARK   30  A    between atoms: _78  and  _79
REMARK   31  A    between atoms: _82  and  _84
REMARK   32  A    between atoms: _84  and  _85
REMARK   33  A    between atoms: _87  and  _89
REMARK   34  A    between atoms: _89  and  _90
REMARK   35  A    between atoms: _89  and  _92
REMARK   36  A    between atoms: _92  and  _93
REMARK   37  A    between atoms: _98  and  _99
REMARK   38  A    between atoms: _101  and  _103
REMARK   39  A    between atoms: _103  and  _104
REMARK   40  A    between atoms: _103  and  _106
REMARK   41  A    between atoms: _106  and  _107
REMARK   42  A    between atoms: _110  and  _112
REMARK   43  A    between atoms: _112  and  _113
REMARK   44  A    between atoms: _112  and  _115
REMARK   45  A    between atoms: _115  and  _116
REMARK   46  A    between atoms: _116  and  _117
REMARK   47  A    between atoms: _117  and  _118
REMARK   48  A    between atoms: _127  and  _129
REMARK   49  A    between atoms: _129  and  _130
REMARK   50  A    between atoms: _129  and  _132
REMARK   51  A    between atoms: _132  and  _133
REMARK   52  A    between atoms: _136  and  _138
REMARK   53  A    between atoms: _138  and  _139
REMARK   54  A    between atoms: _138  and  _141
REMARK   55  A    between atoms: _141  and  _142
REMARK   56  A    between atoms: _145  and  _147
REMARK   57  A    between atoms: _147  and  _148
REMARK   58  A    between atoms: _147  and  _150
REMARK   59  A    between atoms: _150  and  _151
REMARK   60  A    between atoms: _151  and  _152
REMARK   61  A    between atoms: _157  and  _159
REMARK   62  A    between atoms: _159  and  _160
REMARK   63  A    between atoms: _159  and  _162
REMARK   64  A    between atoms: _162  and  _163
REMARK   65  A    between atoms: _168  and  _170
REMARK   66  A    between atoms: _170  and  _171
REMARK   67  A    between atoms: _174  and  _176
REMARK   68  A    between atoms: _176  and  _177
REMARK   69  A    between atoms: _179  and  _181
REMARK   70  A    between atoms: _181  and  _182
REMARK   71  A    between atoms: _181  and  _184
REMARK   72  A    between atoms: _184  and  _185
REMARK   73  A    between atoms: _188  and  _190
REMARK   74  A    between atoms: _190  and  _191
REMARK   75  A    between atoms: _190  and  _193
REMARK   76  A    between atoms: _193  and  _194
REMARK   77  A    between atoms: _194  and  _195
REMARK   78  A    between atoms: _195  and  _196
REMARK   79  A    between atoms: _205  and  _207
REMARK   80  A    between atoms: _207  and  _208
REMARK   81  A    between atoms: _207  and  _210
REMARK   82  A    between atoms: _213  and  _215
REMARK   83  A    between atoms: _215  and  _216
REMARK   84  A    between atoms: _215  and  _218
REMARK   85  A    between atoms: _218  and  _219
REMARK   86  A    between atoms: _224  and  _225
REMARK   87  A    between atoms: _227  and  _229
REMARK   88  A    between atoms: _229  and  _230
REMARK   89  A    between atoms: _229  and  _232
REMARK   90  A    between atoms: _232  and  _233
REMARK   91  A    between atoms: _235  and  _237
REMARK   92  A    between atoms: _237  and  _238
REMARK   93  A    between atoms: _237  and  _240
REMARK   94  A    between atoms: _240  and  _241
REMARK   95  A    between atoms: _246  and  _248
REMARK   96  A    between atoms: _248  and  _249
REMARK   97  A    between atoms: _248  and  _251
REMARK   98  A    between atoms: _251  and  _252
REMARK   99  A    between atoms: _252  and  _253
REMARK  100  A    between atoms: _256  and  _258
REMARK  101  A    between atoms: _258  and  _259
REMARK  102  A    between atoms: _258  and  _261
REMARK  103  A    between atoms: _261  and  _262
REMARK  104  A    between atoms: _267  and  _268
REMARK  105  A    between atoms: _270  and  _272
REMARK  106  A    between atoms: _272  and  _273
REMARK  107  A    between atoms: _276  and  _278
REMARK  108  A    between atoms: _278  and  _279
REMARK  109  A    between atoms: _278  and  _281
REMARK  110  A    between atoms: _281  and  _282
REMARK  111  A    between atoms: _286  and  _287
REMARK  112  A    between atoms: _292  and  _294
REMARK  113  A    between atoms: _294  and  _295
REMARK  114  A    between atoms: _294  and  _297
REMARK  115  A    between atoms: _297  and  _298
REMARK  116  A    between atoms: _301  and  _303
REMARK  117  A    between atoms: _303  and  _304
REMARK  118  A    between atoms: _303  and  _306
REMARK  119  A    between atoms: _306  and  _307
REMARK  120  A    between atoms: _307  and  _308
REMARK  121  A    between atoms: _313  and  _315
REMARK  122  A    between atoms: _315  and  _316
REMARK  123  A    between atoms: _315  and  _318
REMARK  124  A    between atoms: _318  and  _319
REMARK  125  A    between atoms: _322  and  _324
REMARK  126  A    between atoms: _324  and  _325
REMARK  127  A    between atoms: _324  and  _327
REMARK  128  A    between atoms: _327  and  _328
REMARK  129  A    between atoms: _331  and  _333
REMARK  130  A    between atoms: _333  and  _334
REMARK  131  A    between atoms: _333  and  _336
REMARK  132  A    between atoms: _336  and  _337
REMARK  133  A    between atoms: _343  and  _345
REMARK  134  A    between atoms: _345  and  _346
REMARK  135  A    between atoms: _348  and  _350
REMARK  136  A    between atoms: _350  and  _351
REMARK  137  A    between atoms: _350  and  _353
REMARK  138  A    between atoms: _353  and  _354
REMARK  139  A    between atoms: _357  and  _359
REMARK  140  A    between atoms: _359  and  _360
REMARK  141  A    between atoms: _363  and  _365
REMARK  142  A    between atoms: _365  and  _366
REMARK  143  A    between atoms: _365  and  _368
REMARK  144  A    between atoms: _368  and  _369
REMARK  145  A    between atoms: _379  and  _381
REMARK  146  A    between atoms: _381  and  _382
REMARK  147  A    between atoms: _381  and  _384
REMARK  148  A    between atoms: _384  and  _385
REMARK  149  A    between atoms: _387  and  _389
REMARK  150  A    between atoms: _389  and  _390
REMARK  151  A    between atoms: _389  and  _392
REMARK  152  A    between atoms: _392  and  _393
REMARK  153  A    between atoms: _398  and  _399
REMARK  154  A    between atoms: _401  and  _403
REMARK  155  A    between atoms: _403  and  _404
REMARK  156  A    between atoms: _403  and  _406
REMARK  157  A    between atoms: _406  and  _407
REMARK  158  A    between atoms: _412  and  _413
REMARK  159  A    between atoms: _415  and  _417
REMARK  160  A    between atoms: _417  and  _418
REMARK  161  A    between atoms: _417  and  _420
REMARK  162  A    between atoms: _420  and  _421
REMARK  163  A    between atoms: _424  and  _426
REMARK  164  A    between atoms: _426  and  _427
REMARK  165  A    between atoms: _429  and  _431
REMARK  166  A    between atoms: _431  and  _432
REMARK  167  A    between atoms: _431  and  _434
REMARK  168  A    between atoms: _434  and  _435
REMARK  169  A    between atoms: _440  and  _441
REMARK  170  A    between atoms: _443  and  _445
REMARK  171  A    between atoms: _445  and  _446
REMARK  172  A    between atoms: _445  and  _448
REMARK  173  A    between atoms: _448  and  _449
REMARK  174  A    between atoms: _452  and  _454
REMARK  175  A    between atoms: _454  and  _455
REMARK  176  A    between atoms: _454  and  _457
REMARK  177  A    between atoms: _457  and  _458
REMARK  178  A    between atoms: _458  and  _459
REMARK  179  A    between atoms: _459  and  _460
REMARK  180  A    between atoms: _469  and  _471
REMARK  181  A    between atoms: _471  and  _472
REMARK  182  A    between atoms: _471  and  _474
REMARK  183  A    between atoms: _474  and  _475
REMARK  184  A    between atoms: _478  and  _480
REMARK  185  A    between atoms: _480  and  _481
REMARK  186  A    between atoms: _480  and  _483
REMARK  187  A    between atoms: _483  and  _484
REMARK  188  A    between atoms: _487  and  _489
REMARK  189  A    between atoms: _489  and  _490
REMARK  190  A    between atoms: _489  and  _492
REMARK  191  A    between atoms: _492  and  _493
REMARK  192  A    between atoms: _493  and  _494
REMARK  193  A    between atoms: _494  and  _495
REMARK  194  A    between atoms: _504  and  _506
REMARK  195  A    between atoms: _506  and  _507
REMARK  196  A    between atoms: _506  and  _509
REMARK  197  A    between atoms: _509  and  _510
REMARK  198  A    between atoms: _513  and  _515
REMARK  199  A    between atoms: _515  and  _516
REMARK  200  A    between atoms: _515  and  _518
REMARK  201  A    between atoms: _518  and  _519
REMARK  202  A    between atoms: _519  and  _520
REMARK  203  A    between atoms: _520  and  _521
REMARK  204  A    between atoms: _521  and  _522
REMARK  205  A    between atoms: _526  and  _528
REMARK  206  A    between atoms: _528  and  _529
REMARK  207  A    between atoms: _528  and  _531
REMARK  208  A    between atoms: _531  and  _532
REMARK  209  A    between atoms: _532  and  _533
REMARK  210  A    between atoms: _538  and  _540
REMARK  211  A    between atoms: _540  and  _541
REMARK  212  A    between atoms: _540  and  _543
REMARK  213  A    between atoms: _543  and  _544
REMARK  214  A    between atoms: _549  and  _551
REMARK  215  A    between atoms: _551  and  _552
REMARK  216  A    between atoms: _555  and  _557
REMARK  217  A    between atoms: _557  and  _558
REMARK  218  A    between atoms: _557  and  _560
REMARK  219  A    between atoms: _560  and  _561
REMARK  220  A    between atoms: _564  and  _566
REMARK  221  A    between atoms: _566  and  _567
REMARK  222  A    between atoms: _566  and  _569
REMARK  223  A    between atoms: _569  and  _570
REMARK  224  A    between atoms: _570  and  _571
REMARK  225  A    between atoms: _571  and  _572
REMARK  226  A    between atoms: _581  and  _583
REMARK  227  A    between atoms: _583  and  _584
REMARK  228  A    between atoms: _583  and  _586
REMARK  229  A    between atoms: _589  and  _591
REMARK  230  A    between atoms: _591  and  _592
REMARK  231  A    between atoms: _591  and  _594
REMARK  232  A    between atoms: _594  and  _595
REMARK  233  A    between atoms: _600  and  _601
REMARK  234  A    between atoms: _603  and  _605
REMARK  235  A    between atoms: _605  and  _606
REMARK  236  A    between atoms: _605  and  _608
REMARK  237  A    between atoms: _608  and  _609
REMARK  238  A    between atoms: _611  and  _613
REMARK  239  A    between atoms: _613  and  _614
REMARK  240  A    between atoms: _613  and  _616
REMARK  241  A    between atoms: _616  and  _617
REMARK  242  A    between atoms: _622  and  _624
REMARK  243  A    between atoms: _624  and  _625
REMARK  244  A    between atoms: _624  and  _627
REMARK  245  A    between atoms: _627  and  _628
REMARK  246  A    between atoms: _628  and  _629
REMARK  247  A    between atoms: _632  and  _634
REMARK  248  A    between atoms: _634  and  _635
REMARK  249  A    between atoms: _634  and  _637
REMARK  250  A    between atoms: _637  and  _638
REMARK  251  A    between atoms: _643  and  _644
REMARK  252  A    between atoms: _646  and  _648
REMARK  253  A    between atoms: _648  and  _649
REMARK  254  A    between atoms: _652  and  _654
REMARK  255  A    between atoms: _654  and  _655
REMARK  256  A    between atoms: _654  and  _657
REMARK  257  A    between atoms: _657  and  _658
REMARK  258  A    between atoms: _662  and  _663
REMARK  259  A    between atoms: _668  and  _670
REMARK  260  A    between atoms: _670  and  _671
REMARK  261  A    between atoms: _670  and  _673
REMARK  262  A    between atoms: _673  and  _674
REMARK  263  A    between atoms: _677  and  _679
REMARK  264  A    between atoms: _679  and  _680
REMARK  265  A    between atoms: _679  and  _682
REMARK  266  A    between atoms: _682  and  _683
REMARK  267  A    between atoms: _683  and  _684
REMARK  268  A    between atoms: _689  and  _691
REMARK  269  A    between atoms: _691  and  _692
REMARK  270  A    between atoms: _691  and  _694
REMARK  271  A    between atoms: _694  and  _695
REMARK  272  A    between atoms: _698  and  _700
REMARK  273  A    between atoms: _700  and  _701
REMARK  274  A    between atoms: _700  and  _703
REMARK  275  A    between atoms: _703  and  _704
REMARK  276  A    between atoms: _707  and  _709
REMARK  277  A    between atoms: _709  and  _710
REMARK  278  A    between atoms: _709  and  _712
REMARK  279  A    between atoms: _712  and  _713
REMARK                            x       y       z     vdW  Elec       q    Type
REMARK                         _______ _______ _______ _____ _____    ______ ____
ROOT
ATOM      1  CA  TYR A   3     -59.164   8.492  63.982  0.00  0.00    +0.153 C 
ENDROOT
BRANCH   1   2
ATOM      2  C   TYR A   3     -58.912   8.315  62.474  0.00  0.00    +0.241 C 
ATOM      3  N   SER A   4     -57.775   7.770  62.141  0.00  0.00    -0.295 N 
ATOM      4  H   SER A   4     -57.094   7.512  62.884  0.00  0.00    +0.150 HD
ATOM      5  O   TYR A   3     -59.690   8.725  61.654  0.00  0.00    -0.273 OA
BRANCH   3   6
ATOM      6  CA  SER A   4     -57.446   7.519  60.755  0.00  0.00    +0.178 C 
BRANCH   6   7
ATOM      7  C   SER A   4     -57.124   6.016  60.517  0.00  0.00    +0.243 C 
ATOM      8  O   SER A   4     -56.614   5.332  61.435  0.00  0.00    -0.273 OA
ATOM      9  N   ASN A   5     -57.460   5.522  59.315  0.00  0.00    -0.298 N 
ATOM     10  H   ASN A   5     -57.934   6.145  58.631  0.00  0.00    +0.150 HD
BRANCH   9  11
ATOM     11  CA  ASN A   5     -57.182   4.135  58.934  0.00  0.00    +0.146 C 
BRANCH  11  12
ATOM     12  C   ASN A   5     -56.606   4.074  57.579  0.00  0.00    +0.227 C 
ATOM     13  O   ASN A   5     -56.875   4.953  56.782  0.00  0.00    -0.286 OA
ENDBRANCH  11  12
BRANCH  11  14
ATOM     14  CB  ASN A   5     -58.430   3.297  58.992  0.00  0.00    +0.112 C 
BRANCH  14  15
ATOM     15  CG  ASN A   5     -59.087   3.379  60.329  0.00  0.00    +0.222 C 
ATOM     16  ND2 ASN A   5     -58.742   2.436  61.223  0.00  0.00    -0.329 N 
ATOM     17 HD21 ASN A   5     -59.181   2.428  62.166  0.00  0.00    +0.145 HD
ATOM     18 HD22 ASN A   5     -58.036   1.715  60.972  0.00  0.00    +0.145 HD
ATOM     19  OD1 ASN A   5     -59.927   4.272  60.567  0.00  0.00    -0.275 OA
ENDBRANCH  14  15
ENDBRANCH  11  14
ENDBRANCH   9  11
ENDBRANCH   6   7
BRANCH   6  20
ATOM     20  CB  SER A   4     -56.277   8.395  60.339  0.00  0.00    +0.166 C 
BRANCH  20  21
ATOM     21  OG  SER A   4     -55.138   7.999  61.024  0.00  0.00    -0.380 OA
ATOM     22  H   SER A   4     -55.291   8.091  61.998  0.00  0.00    +0.211 HD
ENDBRANCH  20  21
ENDBRANCH   6  20
ENDBRANCH   3   6
ENDBRANCH   1   2
BRANCH   1  25
ATOM     23  C   VAL A   2     -58.423  10.681  64.793  0.00  0.00    +0.241 C 
ATOM     24  O   VAL A   2     -57.416  10.224  65.297  0.00  0.00    -0.273 OA
ATOM     25  N   TYR A   3     -59.317   9.946  64.153  0.00  0.00    -0.297 N 
ATOM     26  H   TYR A   3     -60.158  10.412  63.756  0.00  0.00    +0.150 HD
BRANCH  23  27
ATOM     27  CA  VAL A   2     -58.663  12.237  64.758  0.00  0.00    +0.148 C 
BRANCH  27  29
ATOM     28  C   ARG A   1     -59.804  13.194  66.601  0.00  0.00    +0.238 C 
ATOM     29  N   VAL A   2     -58.666  12.833  66.079  0.00  0.00    -0.297 N 
ATOM     30  H   VAL A   2     -57.777  12.970  66.600  0.00  0.00    +0.150 HD
ATOM     31  O   ARG A   1     -60.869  12.979  66.044  0.00  0.00    -0.274 OA
BRANCH  28  32
ATOM     32  CA  ARG A   1     -59.705  13.988  67.931  0.00  0.00    +0.145 C 
BRANCH  32  33
ATOM     33  N   ARG A   1     -60.668  15.085  67.876  0.00  0.00    -0.238 NA
ATOM     34  H   ARG A   1     -61.491  15.103  68.512  0.00  0.00    +0.142 HD
ENDBRANCH  32  33
BRANCH  32  35
ATOM     35  CB  ARG A   1     -59.938  13.097  69.153  0.00  0.00    +0.030 C 
BRANCH  35  36
ATOM     36  CG  ARG A   1     -58.871  12.008  69.267  0.00  0.00    +0.045 C 
BRANCH  36  37
ATOM     37  CD  ARG A   1     -59.055  11.161  70.484  0.00  0.00    +0.174 C 
BRANCH  37  38
ATOM     38  NE  ARG A   1     -58.280   9.945  70.427  0.00  0.00    -0.265 N 
ATOM     39  CZ  ARG A   1     -58.076   9.147  71.433  0.00  0.00    +0.342 C 
ATOM     40  NH2 ARG A   1     -58.506   9.451  72.662  0.00  0.00    -0.292 N 
ATOM     41 HH21 ARG A   1     -58.331   8.796  73.451  0.00  0.00    +0.255 HD
ATOM     42 HH22 ARG A   1     -59.016  10.342  72.829  0.00  0.00    +0.255 HD
ATOM     43  NH1 ARG A   1     -57.477   8.002  71.226  0.00  0.00    -0.292 N 
ATOM     44 HH11 ARG A   1     -57.307   7.353  72.021  0.00  0.00    +0.255 HD
ATOM     45 HH12 ARG A   1     -57.171   7.741  70.267  0.00  0.00    +0.255 HD
ATOM     46  HE  ARG A   1     -57.853   9.688  69.514  0.00  0.00    +0.259 HD
ENDBRANCH  37  38
ENDBRANCH  36  37
ENDBRANCH  35  36
ENDBRANCH  32  35
ENDBRANCH  28  32
ENDBRANCH  27  29
BRANCH  27  47
ATOM     47  CB  VAL A   2     -57.506  12.849  63.920  0.00  0.00    +0.027 C 
ATOM     48  CG2 VAL A   2     -57.643  14.371  63.791  0.00  0.00    +0.002 C 
ATOM     49  CG1 VAL A   2     -57.484  12.178  62.522  0.00  0.00    +0.002 C 
ENDBRANCH  27  47
ENDBRANCH  23  27
ENDBRANCH   1  25
BRANCH   1  50
ATOM     50  CB  TYR A   3     -60.435   7.751  64.474  0.00  0.00    +0.055 C 
BRANCH  50  51
ATOM     51  CG  TYR A   3     -60.717   8.009  65.954  0.00  0.00    -0.020 A 
ATOM     52  CD2 TYR A   3     -60.121   7.298  66.888  0.00  0.00    -0.001 A 
ATOM     53  CE2 TYR A   3     -60.261   7.574  68.225  0.00  0.00    +0.036 A 
ATOM     54  CZ  TYR A   3     -61.118   8.566  68.669  0.00  0.00    +0.134 A 
ATOM     55  CE1 TYR A   3     -61.764   9.308  67.759  0.00  0.00    +0.036 A 
ATOM     56  CD1 TYR A   3     -61.518   9.069  66.383  0.00  0.00    -0.001 A 
BRANCH  54  57
ATOM     57  OH  TYR A   3     -61.227   8.774  70.042  0.00  0.00    -0.506 OA
ATOM     58  HH  TYR A   3     -60.666   8.113  70.520  0.00  0.00    +0.292 HD
ENDBRANCH  54  57
ENDBRANCH  50  51
ENDBRANCH   1  50
TORSDOF 22
REMARK  Name = ../refined-set-2016/4loh/4loh_pocket.pdb
REMARK  279 active torsions:
REMARK  status: ('A' for Active; 'I' for Inactive)
REMARK    1  A    between atoms: _1  and  _3
REMARK    2  A    between atoms: _3  and  _4
REMARK    3  A    between atoms: _6  and  _8
REMARK    4  A    between atoms: _8  and  _9
REMARK    5  A    between atoms: _8  and  _11
REMARK    6  A    between atoms: _11  and  _12
REMARK    7  A    between atoms: _15  and  _17
REMARK    8  A    between atoms: _17  and  _18
REMARK    9  A    between atoms: _21  and  _23
REMARK   10  A    between atoms: _23  and  _24
REMARK   11  A    between atoms: _23  and  _26
REMARK   12  A    between atoms: _26  and  _27
REMARK   13  A    between atoms: _37  and  _39
REMARK   14  A    between atoms: _39  and  _40
REMARK   15  A    between atoms: _39  and  _42
REMARK   16  A    between atoms: _42  and  _43
REMARK   17  A    between atoms: _45  and  _47
REMARK   18  A    between atoms: _47  and  _48
REMARK   19  A    between atoms: _47  and  _50
REMARK   20  A    between atoms: _50  and  _51
REMARK   21  A    between atoms: _56  and  _57
REMARK   22  A    between atoms: _59  and  _61
REMARK   23  A    between atoms: _61  and  _62
REMARK   24  A    between atoms: _61  and  _64
REMARK   25  A    between atoms: _64  and  _65
REMARK   26  A    between atoms: _70  and  _71
REMARK   27  A    between atoms: _73  and  _75
REMARK   28  A    between atoms: _75  and  _76
REMARK   29  A    between atoms: _75  and  _78
REMARK   30  A    between atoms: _78  and  _79
REMARK   31  A    between atoms: _82  and  _84
REMARK   32  A    between atoms: _84  and  _85
REMARK   33  A    between atoms: _87  and  _89
REMARK   34  A    between atoms: _89  and  _90
REMARK   35  A    between atoms: _89  and  _92
REMARK   36  A    between atoms: _92  and  _93
REMARK   37  A    between atoms: _98  and  _99
REMARK   38  A    between atoms: _101  and  _103
REMARK   39  A    between atoms: _103  and  _104
REMARK   40  A    between atoms: _103  and  _106
REMARK   41  A    between atoms: _106  and  _107
REMARK   42  A    between atoms: _110  and  _112
REMARK   43  A    between atoms: _112  and  _113
REMARK   44  A    between atoms: _112  and  _115
REMARK   45  A    between atoms: _115  and  _116
REMARK   46  A    between atoms: _116  and  _117
REMARK   47  A    between atoms: _117  and  _118
REMARK   48  A    between atoms: _127  and  _129
REMARK   49  A    between atoms: _129  and  _130
REMARK   50  A    between atoms: _129  and  _132
REMARK   51  A    between atoms: _132  and  _133
REMARK   52  A    between atoms: _136  and  _138
REMARK   53  A    between atoms: _138  and  _139
REMARK   54  A    between atoms: _138  and  _141
REMARK   55  A    between atoms: _141  and  _142
REMARK   56  A    between atoms: _145  and  _147
REMARK   57  A    between atoms: _147  and  _148
REMARK   58  A    between atoms: _147  and  _150
REMARK   59  A    between atoms: _150  and  _151
REMARK   60  A    between atoms: _151  and  _152
REMARK   61  A    between atoms: _157  and  _159
REMARK   62  A    between atoms: _159  and  _160
REMARK   63  A    between atoms: _159  and  _162
REMARK   64  A    between atoms: _162  and  _163
REMARK   65  A    between atoms: _168  and  _170
REMARK   66  A    between atoms: _170  and  _171
REMARK   67  A    between atoms: _174  and  _176
REMARK   68  A    between atoms: _176  and  _177
REMARK   69  A    between atoms: _179  and  _181
REMARK   70  A    between atoms: _181  and  _182
REMARK   71  A    between atoms: _181  and  _184
REMARK   72  A    between atoms: _184  and  _185
REMARK   73  A    between atoms: _188  and  _190
REMARK   74  A    between atoms: _190  and  _191
REMARK   75  A    between atoms: _190  and  _193
REMARK   76  A    between atoms: _193  and  _194
REMARK   77  A    between atoms: _194  and  _195
REMARK   78  A    between atoms: _195  and  _196
REMARK   79  A    between atoms: _205  and  _207
REMARK   80  A    between atoms: _207  and  _208
REMARK   81  A    between atoms: _207  and  _210
REMARK   82  A    between atoms: _213  and  _215
REMARK   83  A    between atoms: _215  and  _216
REMARK   84  A    between atoms: _215  and  _218
REMARK   85  A    between atoms: _218  and  _219
REMARK   86  A    between atoms: _224  and  _225
REMARK   87  A    between atoms: _227  and  _229
REMARK   88  A    between atoms: _229  and  _230
REMARK   89  A    between atoms: _229  and  _232
REMARK   90  A    between atoms: _232  and  _233
REMARK   91  A    between atoms: _235  and  _237
REMARK   92  A    between atoms: _237  and  _238
REMARK   93  A    between atoms: _237  and  _240
REMARK   94  A    between atoms: _240  and  _241
REMARK   95  A    between atoms: _246  and  _248
REMARK   96  A    between atoms: _248  and  _249
REMARK   97  A    between atoms: _248  and  _251
REMARK   98  A    between atoms: _251  and  _252
REMARK   99  A    between atoms: _252  and  _253
REMARK  100  A    between atoms: _256  and  _258
REMARK  101  A    between atoms: _258  and  _259
REMARK  102  A    between atoms: _258  and  _261
REMARK  103  A    between atoms: _261  and  _262
REMARK  104  A    between atoms: _267  and  _268
REMARK  105  A    between atoms: _270  and  _272
REMARK  106  A    between atoms: _272  and  _273
REMARK  107  A    between atoms: _276  and  _278
REMARK  108  A    between atoms: _278  and  _279
REMARK  109  A    between atoms: _278  and  _281
REMARK  110  A    between atoms: _281  and  _282
REMARK  111  A    between atoms: _286  and  _287
REMARK  112  A    between atoms: _292  and  _294
REMARK  113  A    between atoms: _294  and  _295
REMARK  114  A    between atoms: _294  and  _297
REMARK  115  A    between atoms: _297  and  _298
REMARK  116  A    between atoms: _301  and  _303
REMARK  117  A    between atoms: _303  and  _304
REMARK  118  A    between atoms: _303  and  _306
REMARK  119  A    between atoms: _306  and  _307
REMARK  120  A    between atoms: _307  and  _308
REMARK  121  A    between atoms: _313  and  _315
REMARK  122  A    between atoms: _315  and  _316
REMARK  123  A    between atoms: _315  and  _318
REMARK  124  A    between atoms: _318  and  _319
REMARK  125  A    between atoms: _322  and  _324
REMARK  126  A    between atoms: _324  and  _325
REMARK  127  A    between atoms: _324  and  _327
REMARK  128  A    between atoms: _327  and  _328
REMARK  129  A    between atoms: _331  and  _333
REMARK  130  A    between atoms: _333  and  _334
REMARK  131  A    between atoms: _333  and  _336
REMARK  132  A    between atoms: _336  and  _337
REMARK  133  A    between atoms: _343  and  _345
REMARK  134  A    between atoms: _345  and  _346
REMARK  135  A    between atoms: _348  and  _350
REMARK  136  A    between atoms: _350  and  _351
REMARK  137  A    between atoms: _350  and  _353
REMARK  138  A    between atoms: _353  and  _354
REMARK  139  A    between atoms: _357  and  _359
REMARK  140  A    between atoms: _359  and  _360
REMARK  141  A    between atoms: _363  and  _365
REMARK  142  A    between atoms: _365  and  _366
REMARK  143  A    between atoms: _365  and  _368
REMARK  144  A    between atoms: _368  and  _369
REMARK  145  A    between atoms: _379  and  _381
REMARK  146  A    between atoms: _381  and  _382
REMARK  147  A    between atoms: _381  and  _384
REMARK  148  A    between atoms: _384  and  _385
REMARK  149  A    between atoms: _387  and  _389
REMARK  150  A    between atoms: _389  and  _390
REMARK  151  A    between atoms: _389  and  _392
REMARK  152  A    between atoms: _392  and  _393
REMARK  153  A    between atoms: _398  and  _399
REMARK  154  A    between atoms: _401  and  _403
REMARK  155  A    between atoms: _403  and  _404
REMARK  156  A    between atoms: _403  and  _406
REMARK  157  A    between atoms: _406  and  _407
REMARK  158  A    between atoms: _412  and  _413
REMARK  159  A    between atoms: _415  and  _417
REMARK  160  A    between atoms: _417  and  _418
REMARK  161  A    between atoms: _417  and  _420
REMARK  162  A    between atoms: _420  and  _421
REMARK  163  A    between atoms: _424  and  _426
REMARK  164  A    between atoms: _426  and  _427
REMARK  165  A    between atoms: _429  and  _431
REMARK  166  A    between atoms: _431  and  _432
REMARK  167  A    between atoms: _431  and  _434
REMARK  168  A    between atoms: _434  and  _435
REMARK  169  A    between atoms: _440  and  _441
REMARK  170  A    between atoms: _443  and  _445
REMARK  171  A    between atoms: _445  and  _446
REMARK  172  A    between atoms: _445  and  _448
REMARK  173  A    between atoms: _448  and  _449
REMARK  174  A    between atoms: _452  and  _454
REMARK  175  A    between atoms: _454  and  _455
REMARK  176  A    between atoms: _454  and  _457
REMARK  177  A    between atoms: _457  and  _458
REMARK  178  A    between atoms: _458  and  _459
REMARK  179  A    between atoms: _459  and  _460
REMARK  180  A    between atoms: _469  and  _471
REMARK  181  A    between atoms: _471  and  _472
REMARK  182  A    between atoms: _471  and  _474
REMARK  183  A    between atoms: _474  and  _475
REMARK  184  A    between atoms: _478  and  _480
REMARK  185  A    between atoms: _480  and  _481
REMARK  186  A    between atoms: _480  and  _483
REMARK  187  A    between atoms: _483  and  _484
REMARK  188  A    between atoms: _487  and  _489
REMARK  189  A    between atoms: _489  and  _490
REMARK  190  A    between atoms: _489  and  _492
REMARK  191  A    between atoms: _492  and  _493
REMARK  192  A    between atoms: _493  and  _494
REMARK  193  A    between atoms: _494  and  _495
REMARK  194  A    between atoms: _504  and  _506
REMARK  195  A    between atoms: _506  and  _507
REMARK  196  A    between atoms: _506  and  _509
REMARK  197  A    between atoms: _509  and  _510
REMARK  198  A    between atoms: _513  and  _515
REMARK  199  A    between atoms: _515  and  _516
REMARK  200  A    between atoms: _515  and  _518
REMARK  201  A    between atoms: _518  and  _519
REMARK  202  A    between atoms: _519  and  _520
REMARK  203  A    between atoms: _520  and  _521
REMARK  204  A    between atoms: _521  and  _522
REMARK  205  A    between atoms: _526  and  _528
REMARK  206  A    between atoms: _528  and  _529
REMARK  207  A    between atoms: _528  and  _531
REMARK  208  A    between atoms: _531  and  _532
REMARK  209  A    between atoms: _532  and  _533
REMARK  210  A    between atoms: _538  and  _540
REMARK  211  A    between atoms: _540  and  _541
REMARK  212  A    between atoms: _540  and  _543
REMARK  213  A    between atoms: _543  and  _544
REMARK  214  A    between atoms: _549  and  _551
REMARK  215  A    between atoms: _551  and  _552
REMARK  216  A    between atoms: _555  and  _557
REMARK  217  A    between atoms: _557  and  _558
REMARK  218  A    between atoms: _557  and  _560
REMARK  219  A    between atoms: _560  and  _561
REMARK  220  A    between atoms: _564  and  _566
REMARK  221  A    between atoms: _566  and  _567
REMARK  222  A    between atoms: _566  and  _569
REMARK  223  A    between atoms: _569  and  _570
REMARK  224  A    between atoms: _570  and  _571
REMARK  225  A    between atoms: _571  and  _572
REMARK  226  A    between atoms: _581  and  _583
REMARK  227  A    between atoms: _583  and  _584
REMARK  228  A    between atoms: _583  and  _586
REMARK  229  A    between atoms: _589  and  _591
REMARK  230  A    between atoms: _591  and  _592
REMARK  231  A    between atoms: _591  and  _594
REMARK  232  A    between atoms: _594  and  _595
REMARK  233  A    between atoms: _600  and  _601
REMARK  234  A    between atoms: _603  and  _605
REMARK  235  A    between atoms: _605  and  _606
REMARK  236  A    between atoms: _605  and  _608
REMARK  237  A    between atoms: _608  and  _609
REMARK  238  A    between atoms: _611  and  _613
REMARK  239  A    between atoms: _613  and  _614
REMARK  240  A    between atoms: _613  and  _616
REMARK  241  A    between atoms: _616  and  _617
REMARK  242  A    between atoms: _622  and  _624
REMARK  243  A    between atoms: _624  and  _625
REMARK  244  A    between atoms: _624  and  _627
REMARK  245  A    between atoms: _627  and  _628
REMARK  246  A    between atoms: _628  and  _629
REMARK  247  A    between atoms: _632  and  _634
REMARK  248  A    between atoms: _634  and  _635
REMARK  249  A    between atoms: _634  and  _637
REMARK  250  A    between atoms: _637  and  _638
REMARK  251  A    between atoms: _643  and  _644
REMARK  252  A    between atoms: _646  and  _648
REMARK  253  A    between atoms: _648  and  _649
REMARK  254  A    between atoms: _652  and  _654
REMARK  255  A    between atoms: _654  and  _655
REMARK  256  A    between atoms: _654  and  _657
REMARK  257  A    between atoms: _657  and  _658
REMARK  258  A    between atoms: _662  and  _663
REMARK  259  A    between atoms: _668  and  _670
REMARK  260  A    between atoms: _670  and  _671
REMARK  261  A    between atoms: _670  and  _673
REMARK  262  A    between atoms: _673  and  _674
REMARK  263  A    between atoms: _677  and  _679
REMARK  264  A    between atoms: _679  and  _680
REMARK  265  A    between atoms: _679  and  _682
REMARK  266  A    between atoms: _682  and  _683
REMARK  267  A    between atoms: _683  and  _684
REMARK  268  A    between atoms: _689  and  _691
REMARK  269  A    between atoms: _691  and  _692
REMARK  270  A    between atoms: _691  and  _694
REMARK  271  A    between atoms: _694  and  _695
REMARK  272  A    between atoms: _698  and  _700
REMARK  273  A    between atoms: _700  and  _701
REMARK  274  A    between atoms: _700  and  _703
REMARK  275  A    between atoms: _703  and  _704
REMARK  276  A    between atoms: _707  and  _709
REMARK  277  A    between atoms: _709  and  _710
REMARK  278  A    between atoms: _709  and  _712
REMARK  279  A    between atoms: _712  and  _713
REMARK                            x       y       z     vdW  Elec       q    Type
REMARK                         _______ _______ _______ _____ _____    ______ ____
ROOT
ATOM      1  C   THR A   4     -52.155  -1.851  70.633  0.00  0.00    +0.246 C 
ATOM      2  N   PRO A   5     -53.138  -2.335  71.359  0.00  0.00    -0.272 N 
ATOM      3  CA  PRO A   5     -52.798  -2.803  72.663  0.00  0.00    +0.152 C 
ATOM      4  CB  PRO A   5     -54.162  -3.283  73.200  0.00  0.00    +0.031 C 
ATOM      5  CG  PRO A   5     -55.153  -2.508  72.440  0.00  0.00    +0.024 C 
ATOM      6  CD  PRO A   5     -54.563  -2.442  71.086  0.00  0.00    +0.094 C 
ATOM      7  O   THR A   4     -50.985  -1.846  71.063  0.00  0.00    -0.273 OA
ENDROOT
BRANCH   3   8
ATOM      8  C   PRO A   5     -51.794  -3.962  72.803  0.00  0.00    +0.241 C 
ATOM      9  O   PRO A   5     -51.311  -4.243  73.905  0.00  0.00    -0.273 OA
ATOM     10  N   LEU A   6     -51.528  -4.680  71.737  0.00  0.00    -0.297 N 
ATOM     11  H   LEU A   6     -52.020  -4.481  70.843  0.00  0.00    +0.150 HD
BRANCH  10  12
ATOM     12  CA  LEU A   6     -50.553  -5.748  71.801  0.00  0.00    +0.149 C 
BRANCH  12  13
ATOM     13  C   LEU A   6     -49.139  -5.153  71.920  0.00  0.00    +0.241 C 
ATOM     14  O   LEU A   6     -48.218  -5.773  72.482  0.00  0.00    -0.273 OA
ATOM     15  N   GLN A   7     -49.015  -3.913  71.513  0.00  0.00    -0.297 N 
ATOM     16  H   GLN A   7     -49.833  -3.433  71.085  0.00  0.00    +0.150 HD
BRANCH  15  17
ATOM     17  CA  GLN A   7     -47.771  -3.202  71.646  0.00  0.00    +0.149 C 
BRANCH  17  18
ATOM     18  C   GLN A   7     -47.569  -2.852  73.098  0.00  0.00    +0.241 C 
ATOM     19  N   THR A   8     -48.666  -2.591  73.841  0.00  0.00    -0.295 N 
ATOM     20  H   THR A   8     -49.600  -2.609  73.385  0.00  0.00    +0.150 HD
ATOM     21  O   GLN A   7     -46.449  -2.784  73.546  0.00  0.00    -0.273 OA
BRANCH  19  22
ATOM     22  CA  THR A   8     -48.581  -2.293  75.228  0.00  0.00    +0.176 C 
BRANCH  22  23
ATOM     23  C   THR A   8     -48.091  -3.519  75.994  0.00  0.00    +0.243 C 
ATOM     24  O   THR A   8     -47.311  -3.416  76.899  0.00  0.00    -0.273 OA
ATOM     25  N   LEU A   9     -48.639  -4.667  75.701  0.00  0.00    -0.298 N 
ATOM     26  H   LEU A   9     -49.398  -4.693  74.990  0.00  0.00    +0.150 HD
BRANCH  25  27
ATOM     27  CA  LEU A   9     -48.238  -5.877  76.316  0.00  0.00    +0.137 C 
BRANCH  27  28
ATOM     28  C   LEU A   9     -46.715  -6.122  76.041  0.00  0.00    +0.227 C 
ATOM     29  O   LEU A   9     -45.987  -6.459  76.936  0.00  0.00    -0.286 OA
ENDBRANCH  27  28
BRANCH  27  30
ATOM     30  CB  LEU A   9     -49.040  -7.044  75.786  0.00  0.00    +0.028 C 
BRANCH  30  31
ATOM     31  CG  LEU A   9     -50.541  -7.043  76.225  0.00  0.00    +0.002 C 
ATOM     32  CD2 LEU A   9     -50.670  -7.040  77.758  0.00  0.00    +0.000 C 
ATOM     33  CD1 LEU A   9     -51.200  -8.261  75.711  0.00  0.00    +0.000 C 
ENDBRANCH  30  31
ENDBRANCH  27  30
ENDBRANCH  25  27
ENDBRANCH  22  23
BRANCH  22  34
ATOM     34  CB  THR A   8     -49.906  -1.794  75.798  0.00  0.00    +0.137 C 
ATOM     35  CG2 THR A   8     -49.878  -1.648  77.275  0.00  0.00    +0.034 C 
BRANCH  34  36
ATOM     36  OG1 THR A   8     -50.273  -0.551  75.220  0.00  0.00    -0.382 OA
ATOM     37  HG1 THR A   8     -51.134  -0.250  75.606  0.00  0.00    +0.210 HD
ENDBRANCH  34  36
ENDBRANCH  22  34
ENDBRANCH  19  22
ENDBRANCH  17  18
BRANCH  17  38
ATOM     38  CB  GLN A   7     -47.808  -1.945  70.829  0.00  0.00    +0.039 C 
BRANCH  38  39
ATOM     39  CG  GLN A   7     -46.531  -1.570  70.116  0.00  0.00    +0.087 C 
BRANCH  39  40
ATOM     40  CD  GLN A   7     -46.856  -0.588  68.959  0.00  0.00    +0.219 C 
ATOM     41  OE1 GLN A   7     -47.800   0.186  69.065  0.00  0.00    -0.275 OA
ATOM     42  NE2 GLN A   7     -46.108  -0.649  67.850  0.00  0.00    -0.329 N 
ATOM     43 HE21 GLN A   7     -45.314  -1.318  67.795  0.00  0.00    +0.145 HD
ATOM     44 HE22 GLN A   7     -46.321  -0.027  67.044  0.00  0.00    +0.145 HD
ENDBRANCH  39  40
ENDBRANCH  38  39
ENDBRANCH  17  38
ENDBRANCH  15  17
ENDBRANCH  12  13
BRANCH  12  45
ATOM     45  CB  LEU A   6     -50.672  -6.651  70.603  0.00  0.00    +0.029 C 
BRANCH  45  46
ATOM     46  CG  LEU A   6     -51.944  -7.418  70.390  0.00  0.00    +0.002 C 
ATOM     47  CD2 LEU A   6     -52.171  -8.429  71.478  0.00  0.00    +0.000 C 
ATOM     48  CD1 LEU A   6     -51.942  -8.113  69.050  0.00  0.00    +0.000 C 
ENDBRANCH  45  46
ENDBRANCH  12  45
ENDBRANCH  10  12
ENDBRANCH   3   8
BRANCH   1  49
ATOM     49  CA  THR A   4     -52.464  -1.403  69.166  0.00  0.00    +0.176 C 
BRANCH  49  52
ATOM     50  C   ALA A   3     -53.305  -3.464  68.246  0.00  0.00    +0.241 C 
ATOM     51  O   ALA A   3     -52.442  -4.147  68.740  0.00  0.00    -0.273 OA
ATOM     52  N   THR A   4     -53.397  -2.185  68.426  0.00  0.00    -0.295 N 
ATOM     53  H   THR A   4     -54.209  -1.694  68.000  0.00  0.00    +0.150 HD
BRANCH  50  54
ATOM     54  CA  ALA A   3     -54.349  -4.083  67.357  0.00  0.00    +0.149 C 
ATOM     55  CB  ALA A   3     -54.944  -5.253  68.080  0.00  0.00    +0.031 C 
BRANCH  54  57
ATOM     56  C   TYR A   2     -53.238  -3.624  65.226  0.00  0.00    +0.241 C 
ATOM     57  N   ALA A   3     -53.676  -4.500  66.124  0.00  0.00    -0.297 N 
ATOM     58  H   ALA A   3     -53.537  -5.515  65.946  0.00  0.00    +0.150 HD
ATOM     59  O   TYR A   2     -53.482  -2.427  65.273  0.00  0.00    -0.273 OA
BRANCH  56  60
ATOM     60  CA  TYR A   2     -52.428  -4.201  64.055  0.00  0.00    +0.153 C 
BRANCH  60  62
ATOM     61  C   GLU A   1     -53.666  -3.628  62.028  0.00  0.00    +0.238 C 
ATOM     62  N   TYR A   2     -52.689  -3.389  62.906  0.00  0.00    -0.297 N 
ATOM     63  H   TYR A   2     -52.080  -2.562  62.745  0.00  0.00    +0.150 HD
ATOM     64  O   GLU A   1     -54.397  -4.551  62.095  0.00  0.00    -0.274 OA
BRANCH  61  65
ATOM     65  CA  GLU A   1     -53.881  -2.607  60.943  0.00  0.00    +0.145 C 
BRANCH  65  66
ATOM     66  N   GLU A   1     -54.741  -3.148  59.926  0.00  0.00    -0.238 NA
ATOM     67  H   GLU A   1     -55.290  -4.011  60.115  0.00  0.00    +0.142 HD
ENDBRANCH  65  66
BRANCH  65  68
ATOM     68  CB  GLU A   1     -54.539  -1.324  61.578  0.00  0.00    +0.038 C 
BRANCH  68  69
ATOM     69  CG  GLU A   1     -55.860  -1.594  62.282  0.00  0.00    +0.116 C 
BRANCH  69  70
ATOM     70  CD  GLU A   1     -56.637  -0.284  62.562  0.00  0.00    +0.365 C 
ATOM     71  OE2 GLU A   1     -57.044  -0.047  63.735  0.00  0.00    -0.246 OA
ATOM     72  OE1 GLU A   1     -56.848   0.491  61.622  0.00  0.00    -0.246 OA
ENDBRANCH  69  70
ENDBRANCH  68  69
ENDBRANCH  65  68
ENDBRANCH  61  65
ENDBRANCH  60  62
BRANCH  60  73
ATOM     73  CB  TYR A   2     -50.958  -4.117  64.451  0.00  0.00    +0.055 C 
BRANCH  73  74
ATOM     74  CG  TYR A   2     -50.048  -4.884  63.535  0.00  0.00    -0.020 A 
ATOM     75  CD2 TYR A   2     -49.801  -6.208  63.768  0.00  0.00    -0.001 A 
ATOM     76  CE2 TYR A   2     -48.969  -6.917  62.974  0.00  0.00    +0.036 A 
ATOM     77  CZ  TYR A   2     -48.334  -6.298  61.911  0.00  0.00    +0.134 A 
ATOM     78  CE1 TYR A   2     -48.547  -4.990  61.661  0.00  0.00    +0.036 A 
ATOM     79  CD1 TYR A   2     -49.403  -4.272  62.492  0.00  0.00    -0.001 A 
BRANCH  77  80
ATOM     80  OH  TYR A   2     -47.518  -7.059  61.100  0.00  0.00    -0.506 OA
ATOM     81  HH  TYR A   2     -47.487  -7.987  61.443  0.00  0.00    +0.292 HD
ENDBRANCH  77  80
ENDBRANCH  73  74
ENDBRANCH  60  73
ENDBRANCH  56  60
ENDBRANCH  54  57
ENDBRANCH  50  54
ENDBRANCH  49  52
BRANCH  49  82
ATOM     82  CB  THR A   4     -52.808   0.130  69.027  0.00  0.00    +0.137 C 
ATOM     83  CG2 THR A   4     -51.681   0.879  69.501  0.00  0.00    +0.034 C 
BRANCH  82  84
ATOM     84  OG1 THR A   4     -52.785   0.544  67.635  0.00  0.00    -0.382 OA
ATOM     85  HG1 THR A   4     -53.004   1.508  67.575  0.00  0.00    +0.210 HD
ENDBRANCH  82  84
ENDBRANCH  49  82
ENDBRANCH   1  49
TORSDOF 34
REMARK  Name = ../refined-set-2016/4loh/4loh_pocket.pdb
REMARK  279 active torsions:
REMARK  status: ('A' for Active; 'I' for Inactive)
REMARK    1  A    between atoms: _1  and  _3
REMARK    2  A    between atoms: _3  and  _4
REMARK    3  A    between atoms: _6  and  _8
REMARK    4  A    between atoms: _8  and  _9
REMARK    5  A    between atoms: _8  and  _11
REMARK    6  A    between atoms: _11  and  _12
REMARK    7  A    between atoms: _15  and  _17
REMARK    8  A    between atoms: _17  and  _18
REMARK    9  A    between atoms: _21  and  _23
REMARK   10  A    between atoms: _23  and  _24
REMARK   11  A    between atoms: _23  and  _26
REMARK   12  A    between atoms: _26  and  _27
REMARK   13  A    between atoms: _37  and  _39
REMARK   14  A    between atoms: _39  and  _40
REMARK   15  A    between atoms: _39  and  _42
REMARK   16  A    between atoms: _42  and  _43
REMARK   17  A    between atoms: _45  and  _47
REMARK   18  A    between atoms: _47  and  _48
REMARK   19  A    between atoms: _47  and  _50
REMARK   20  A    between atoms: _50  and  _51
REMARK   21  A    between atoms: _56  and  _57
REMARK   22  A    between atoms: _59  and  _61
REMARK   23  A    between atoms: _61  and  _62
REMARK   24  A    between atoms: _61  and  _64
REMARK   25  A    between atoms: _64  and  _65
REMARK   26  A    between atoms: _70  and  _71
REMARK   27  A    between atoms: _73  and  _75
REMARK   28  A    between atoms: _75  and  _76
REMARK   29  A    between atoms: _75  and  _78
REMARK   30  A    between atoms: _78  and  _79
REMARK   31  A    between atoms: _82  and  _84
REMARK   32  A    between atoms: _84  and  _85
REMARK   33  A    between atoms: _87  and  _89
REMARK   34  A    between atoms: _89  and  _90
REMARK   35  A    between atoms: _89  and  _92
REMARK   36  A    between atoms: _92  and  _93
REMARK   37  A    between atoms: _98  and  _99
REMARK   38  A    between atoms: _101  and  _103
REMARK   39  A    between atoms: _103  and  _104
REMARK   40  A    between atoms: _103  and  _106
REMARK   41  A    between atoms: _106  and  _107
REMARK   42  A    between atoms: _110  and  _112
REMARK   43  A    between atoms: _112  and  _113
REMARK   44  A    between atoms: _112  and  _115
REMARK   45  A    between atoms: _115  and  _116
REMARK   46  A    between atoms: _116  and  _117
REMARK   47  A    between atoms: _117  and  _118
REMARK   48  A    between atoms: _127  and  _129
REMARK   49  A    between atoms: _129  and  _130
REMARK   50  A    between atoms: _129  and  _132
REMARK   51  A    between atoms: _132  and  _133
REMARK   52  A    between atoms: _136  and  _138
REMARK   53  A    between atoms: _138  and  _139
REMARK   54  A    between atoms: _138  and  _141
REMARK   55  A    between atoms: _141  and  _142
REMARK   56  A    between atoms: _145  and  _147
REMARK   57  A    between atoms: _147  and  _148
REMARK   58  A    between atoms: _147  and  _150
REMARK   59  A    between atoms: _150  and  _151
REMARK   60  A    between atoms: _151  and  _152
REMARK   61  A    between atoms: _157  and  _159
REMARK   62  A    between atoms: _159  and  _160
REMARK   63  A    between atoms: _159  and  _162
REMARK   64  A    between atoms: _162  and  _163
REMARK   65  A    between atoms: _168  and  _170
REMARK   66  A    between atoms: _170  and  _171
REMARK   67  A    between atoms: _174  and  _176
REMARK   68  A    between atoms: _176  and  _177
REMARK   69  A    between atoms: _179  and  _181
REMARK   70  A    between atoms: _181  and  _182
REMARK   71  A    between atoms: _181  and  _184
REMARK   72  A    between atoms: _184  and  _185
REMARK   73  A    between atoms: _188  and  _190
REMARK   74  A    between atoms: _190  and  _191
REMARK   75  A    between atoms: _190  and  _193
REMARK   76  A    between atoms: _193  and  _194
REMARK   77  A    between atoms: _194  and  _195
REMARK   78  A    between atoms: _195  and  _196
REMARK   79  A    between atoms: _205  and  _207
REMARK   80  A    between atoms: _207  and  _208
REMARK   81  A    between atoms: _207  and  _210
REMARK   82  A    between atoms: _213  and  _215
REMARK   83  A    between atoms: _215  and  _216
REMARK   84  A    between atoms: _215  and  _218
REMARK   85  A    between atoms: _218  and  _219
REMARK   86  A    between atoms: _224  and  _225
REMARK   87  A    between atoms: _227  and  _229
REMARK   88  A    between atoms: _229  and  _230
REMARK   89  A    between atoms: _229  and  _232
REMARK   90  A    between atoms: _232  and  _233
REMARK   91  A    between atoms: _235  and  _237
REMARK   92  A    between atoms: _237  and  _238
REMARK   93  A    between atoms: _237  and  _240
REMARK   94  A    between atoms: _240  and  _241
REMARK   95  A    between atoms: _246  and  _248
REMARK   96  A    between atoms: _248  and  _249
REMARK   97  A    between atoms: _248  and  _251
REMARK   98  A    between atoms: _251  and  _252
REMARK   99  A    between atoms: _252  and  _253
REMARK  100  A    between atoms: _256  and  _258
REMARK  101  A    between atoms: _258  and  _259
REMARK  102  A    between atoms: _258  and  _261
REMARK  103  A    between atoms: _261  and  _262
REMARK  104  A    between atoms: _267  and  _268
REMARK  105  A    between atoms: _270  and  _272
REMARK  106  A    between atoms: _272  and  _273
REMARK  107  A    between atoms: _276  and  _278
REMARK  108  A    between atoms: _278  and  _279
REMARK  109  A    between atoms: _278  and  _281
REMARK  110  A    between atoms: _281  and  _282
REMARK  111  A    between atoms: _286  and  _287
REMARK  112  A    between atoms: _292  and  _294
REMARK  113  A    between atoms: _294  and  _295
REMARK  114  A    between atoms: _294  and  _297
REMARK  115  A    between atoms: _297  and  _298
REMARK  116  A    between atoms: _301  and  _303
REMARK  117  A    between atoms: _303  and  _304
REMARK  118  A    between atoms: _303  and  _306
REMARK  119  A    between atoms: _306  and  _307
REMARK  120  A    between atoms: _307  and  _308
REMARK  121  A    between atoms: _313  and  _315
REMARK  122  A    between atoms: _315  and  _316
REMARK  123  A    between atoms: _315  and  _318
REMARK  124  A    between atoms: _318  and  _319
REMARK  125  A    between atoms: _322  and  _324
REMARK  126  A    between atoms: _324  and  _325
REMARK  127  A    between atoms: _324  and  _327
REMARK  128  A    between atoms: _327  and  _328
REMARK  129  A    between atoms: _331  and  _333
REMARK  130  A    between atoms: _333  and  _334
REMARK  131  A    between atoms: _333  and  _336
REMARK  132  A    between atoms: _336  and  _337
REMARK  133  A    between atoms: _343  and  _345
REMARK  134  A    between atoms: _345  and  _346
REMARK  135  A    between atoms: _348  and  _350
REMARK  136  A    between atoms: _350  and  _351
REMARK  137  A    between atoms: _350  and  _353
REMARK  138  A    between atoms: _353  and  _354
REMARK  139  A    between atoms: _357  and  _359
REMARK  140  A    between atoms: _359  and  _360
REMARK  141  A    between atoms: _363  and  _365
REMARK  142  A    between atoms: _365  and  _366
REMARK  143  A    between atoms: _365  and  _368
REMARK  144  A    between atoms: _368  and  _369
REMARK  145  A    between atoms: _379  and  _381
REMARK  146  A    between atoms: _381  and  _382
REMARK  147  A    between atoms: _381  and  _384
REMARK  148  A    between atoms: _384  and  _385
REMARK  149  A    between atoms: _387  and  _389
REMARK  150  A    between atoms: _389  and  _390
REMARK  151  A    between atoms: _389  and  _392
REMARK  152  A    between atoms: _392  and  _393
REMARK  153  A    between atoms: _398  and  _399
REMARK  154  A    between atoms: _401  and  _403
REMARK  155  A    between atoms: _403  and  _404
REMARK  156  A    between atoms: _403  and  _406
REMARK  157  A    between atoms: _406  and  _407
REMARK  158  A    between atoms: _412  and  _413
REMARK  159  A    between atoms: _415  and  _417
REMARK  160  A    between atoms: _417  and  _418
REMARK  161  A    between atoms: _417  and  _420
REMARK  162  A    between atoms: _420  and  _421
REMARK  163  A    between atoms: _424  and  _426
REMARK  164  A    between atoms: _426  and  _427
REMARK  165  A    between atoms: _429  and  _431
REMARK  166  A    between atoms: _431  and  _432
REMARK  167  A    between atoms: _431  and  _434
REMARK  168  A    between atoms: _434  and  _435
REMARK  169  A    between atoms: _440  and  _441
REMARK  170  A    between atoms: _443  and  _445
REMARK  171  A    between atoms: _445  and  _446
REMARK  172  A    between atoms: _445  and  _448
REMARK  173  A    between atoms: _448  and  _449
REMARK  174  A    between atoms: _452  and  _454
REMARK  175  A    between atoms: _454  and  _455
REMARK  176  A    between atoms: _454  and  _457
REMARK  177  A    between atoms: _457  and  _458
REMARK  178  A    between atoms: _458  and  _459
REMARK  179  A    between atoms: _459  and  _460
REMARK  180  A    between atoms: _469  and  _471
REMARK  181  A    between atoms: _471  and  _472
REMARK  182  A    between atoms: _471  and  _474
REMARK  183  A    between atoms: _474  and  _475
REMARK  184  A    between atoms: _478  and  _480
REMARK  185  A    between atoms: _480  and  _481
REMARK  186  A    between atoms: _480  and  _483
REMARK  187  A    between atoms: _483  and  _484
REMARK  188  A    between atoms: _487  and  _489
REMARK  189  A    between atoms: _489  and  _490
REMARK  190  A    between atoms: _489  and  _492
REMARK  191  A    between atoms: _492  and  _493
REMARK  192  A    between atoms: _493  and  _494
REMARK  193  A    between atoms: _494  and  _495
REMARK  194  A    between atoms: _504  and  _506
REMARK  195  A    between atoms: _506  and  _507
REMARK  196  A    between atoms: _506  and  _509
REMARK  197  A    between atoms: _509  and  _510
REMARK  198  A    between atoms: _513  and  _515
REMARK  199  A    between atoms: _515  and  _516
REMARK  200  A    between atoms: _515  and  _518
REMARK  201  A    between atoms: _518  and  _519
REMARK  202  A    between atoms: _519  and  _520
REMARK  203  A    between atoms: _520  and  _521
REMARK  204  A    between atoms: _521  and  _522
REMARK  205  A    between atoms: _526  and  _528
REMARK  206  A    between atoms: _528  and  _529
REMARK  207  A    between atoms: _528  and  _531
REMARK  208  A    between atoms: _531  and  _532
REMARK  209  A    between atoms: _532  and  _533
REMARK  210  A    between atoms: _538  and  _540
REMARK  211  A    between atoms: _540  and  _541
REMARK  212  A    between atoms: _540  and  _543
REMARK  213  A    between atoms: _543  and  _544
REMARK  214  A    between atoms: _549  and  _551
REMARK  215  A    between atoms: _551  and  _552
REMARK  216  A    between atoms: _555  and  _557
REMARK  217  A    between atoms: _557  and  _558
REMARK  218  A    between atoms: _557  and  _560
REMARK  219  A    between atoms: _560  and  _561
REMARK  220  A    between atoms: _564  and  _566
REMARK  221  A    between atoms: _566  and  _567
REMARK  222  A    between atoms: _566  and  _569
REMARK  223  A    between atoms: _569  and  _570
REMARK  224  A    between atoms: _570  and  _571
REMARK  225  A    between atoms: _571  and  _572
REMARK  226  A    between atoms: _581  and  _583
REMARK  227  A    between atoms: _583  and  _584
REMARK  228  A    between atoms: _583  and  _586
REMARK  229  A    between atoms: _589  and  _591
REMARK  230  A    between atoms: _591  and  _592
REMARK  231  A    between atoms: _591  and  _594
REMARK  232  A    between atoms: _594  and  _595
REMARK  233  A    between atoms: _600  and  _601
REMARK  234  A    between atoms: _603  and  _605
REMARK  235  A    between atoms: _605  and  _606
REMARK  236  A    between atoms: _605  and  _608
REMARK  237  A    between atoms: _608  and  _609
REMARK  238  A    between atoms: _611  and  _613
REMARK  239  A    between atoms: _613  and  _614
REMARK  240  A    between atoms: _613  and  _616
REMARK  241  A    between atoms: _616  and  _617
REMARK  242  A    between atoms: _622  and  _624
REMARK  243  A    between atoms: _624  and  _625
REMARK  244  A    between atoms: _624  and  _627
REMARK  245  A    between atoms: _627  and  _628
REMARK  246  A    between atoms: _628  and  _629
REMARK  247  A    between atoms: _632  and  _634
REMARK  248  A    between atoms: _634  and  _635
REMARK  249  A    between atoms: _634  and  _637
REMARK  250  A    between atoms: _637  and  _638
REMARK  251  A    between atoms: _643  and  _644
REMARK  252  A    between atoms: _646  and  _648
REMARK  253  A    between atoms: _648  and  _649
REMARK  254  A    between atoms: _652  and  _654
REMARK  255  A    between atoms: _654  and  _655
REMARK  256  A    between atoms: _654  and  _657
REMARK  257  A    between atoms: _657  and  _658
REMARK  258  A    between atoms: _662  and  _663
REMARK  259  A    between atoms: _668  and  _670
REMARK  260  A    between atoms: _670  and  _671
REMARK  261  A    between atoms: _670  and  _673
REMARK  262  A    between atoms: _673  and  _674
REMARK  263  A    between atoms: _677  and  _679
REMARK  264  A    between atoms: _679  and  _680
REMARK  265  A    between atoms: _679  and  _682
REMARK  266  A    between atoms: _682  and  _683
REMARK  267  A    between atoms: _683  and  _684
REMARK  268  A    between atoms: _689  and  _691
REMARK  269  A    between atoms: _691  and  _692
REMARK  270  A    between atoms: _691  and  _694
REMARK  271  A    between atoms: _694  and  _695
REMARK  272  A    between atoms: _698  and  _700
REMARK  273  A    between atoms: _700  and  _701
REMARK  274  A    between atoms: _700  and  _703
REMARK  275  A    between atoms: _703  and  _704
REMARK  276  A    between atoms: _707  and  _709
REMARK  277  A    between atoms: _709  and  _710
REMARK  278  A    between atoms: _709  and  _712
REMARK  279  A    between atoms: _712  and  _713
REMARK                            x       y       z     vdW  Elec       q    Type
REMARK                         _______ _______ _______ _____ _____    ______ ____
ROOT
ATOM      1  CB  PHE A   1     -55.705  -9.323  74.640  0.00  0.00    +0.051 C 
ENDROOT
BRANCH   1   2
ATOM      2  CG  PHE A   1     -56.074  -8.161  73.786  0.00  0.00    -0.020 A 
ATOM      3  CD2 PHE A   1     -56.462  -6.992  74.356  0.00  0.00    -0.004 A 
ATOM      4  CE2 PHE A   1     -56.765  -5.903  73.598  0.00  0.00    -0.000 A 
ATOM      5  CZ  PHE A   1     -56.750  -6.005  72.242  0.00  0.00    -0.000 A 
ATOM      6  CE1 PHE A   1     -56.352  -7.164  71.655  0.00  0.00    -0.000 A 
ATOM      7  CD1 PHE A   1     -56.032  -8.235  72.442  0.00  0.00    -0.004 A 
ENDBRANCH   1   2
BRANCH   1   8
ATOM      8  CA  PHE A   1     -56.898 -10.186  75.109  0.00  0.00    +0.137 C 
BRANCH   8   9
ATOM      9  N   PHE A   1     -56.452 -11.353  75.886  0.00  0.00    -0.239 NA
ATOM     10  H   PHE A   1     -55.438 -11.466  76.089  0.00  0.00    +0.142 HD
ENDBRANCH   8   9
BRANCH   8  11
ATOM     11  C   PHE A   1     -57.739 -10.578  73.894  0.00  0.00    +0.224 C 
ATOM     12  O   PHE A   1     -58.845 -10.010  73.693  0.00  0.00    -0.287 OA
ENDBRANCH   8  11
ENDBRANCH   1   8
TORSDOF 4
REMARK  Name = ../refined-set-2016/4loh/4loh_pocket.pdb
REMARK  279 active torsions:
REMARK  status: ('A' for Active; 'I' for Inactive)
REMARK    1  A    between atoms: _1  and  _3
REMARK    2  A    between atoms: _3  and  _4
REMARK    3  A    between atoms: _6  and  _8
REMARK    4  A    between atoms: _8  and  _9
REMARK    5  A    between atoms: _8  and  _11
REMARK    6  A    between atoms: _11  and  _12
REMARK    7  A    between atoms: _15  and  _17
REMARK    8  A    between atoms: _17  and  _18
REMARK    9  A    between atoms: _21  and  _23
REMARK   10  A    between atoms: _23  and  _24
REMARK   11  A    between atoms: _23  and  _26
REMARK   12  A    between atoms: _26  and  _27
REMARK   13  A    between atoms: _37  and  _39
REMARK   14  A    between atoms: _39  and  _40
REMARK   15  A    between atoms: _39  and  _42
REMARK   16  A    between atoms: _42  and  _43
REMARK   17  A    between atoms: _45  and  _47
REMARK   18  A    between atoms: _47  and  _48
REMARK   19  A    between atoms: _47  and  _50
REMARK   20  A    between atoms: _50  and  _51
REMARK   21  A    between atoms: _56  and  _57
REMARK   22  A    between atoms: _59  and  _61
REMARK   23  A    between atoms: _61  and  _62
REMARK   24  A    between atoms: _61  and  _64
REMARK   25  A    between atoms: _64  and  _65
REMARK   26  A    between atoms: _70  and  _71
REMARK   27  A    between atoms: _73  and  _75
REMARK   28  A    between atoms: _75  and  _76
REMARK   29  A    between atoms: _75  and  _78
REMARK   30  A    between atoms: _78  and  _79
REMARK   31  A    between atoms: _82  and  _84
REMARK   32  A    between atoms: _84  and  _85
REMARK   33  A    between atoms: _87  and  _89
REMARK   34  A    between atoms: _89  and  _90
REMARK   35  A    between atoms: _89  and  _92
REMARK   36  A    between atoms: _92  and  _93
REMARK   37  A    between atoms: _98  and  _99
REMARK   38  A    between atoms: _101  and  _103
REMARK   39  A    between atoms: _103  and  _104
REMARK   40  A    between atoms: _103  and  _106
REMARK   41  A    between atoms: _106  and  _107
REMARK   42  A    between atoms: _110  and  _112
REMARK   43  A    between atoms: _112  and  _113
REMARK   44  A    between atoms: _112  and  _115
REMARK   45  A    between atoms: _115  and  _116
REMARK   46  A    between atoms: _116  and  _117
REMARK   47  A    between atoms: _117  and  _118
REMARK   48  A    between atoms: _127  and  _129
REMARK   49  A    between atoms: _129  and  _130
REMARK   50  A    between atoms: _129  and  _132
REMARK   51  A    between atoms: _132  and  _133
REMARK   52  A    between atoms: _136  and  _138
REMARK   53  A    between atoms: _138  and  _139
REMARK   54  A    between atoms: _138  and  _141
REMARK   55  A    between atoms: _141  and  _142
REMARK   56  A    between atoms: _145  and  _147
REMARK   57  A    between atoms: _147  and  _148
REMARK   58  A    between atoms: _147  and  _150
REMARK   59  A    between atoms: _150  and  _151
REMARK   60  A    between atoms: _151  and  _152
REMARK   61  A    between atoms: _157  and  _159
REMARK   62  A    between atoms: _159  and  _160
REMARK   63  A    between atoms: _159  and  _162
REMARK   64  A    between atoms: _162  and  _163
REMARK   65  A    between atoms: _168  and  _170
REMARK   66  A    between atoms: _170  and  _171
REMARK   67  A    between atoms: _174  and  _176
REMARK   68  A    between atoms: _176  and  _177
REMARK   69  A    between atoms: _179  and  _181
REMARK   70  A    between atoms: _181  and  _182
REMARK   71  A    between atoms: _181  and  _184
REMARK   72  A    between atoms: _184  and  _185
REMARK   73  A    between atoms: _188  and  _190
REMARK   74  A    between atoms: _190  and  _191
REMARK   75  A    between atoms: _190  and  _193
REMARK   76  A    between atoms: _193  and  _194
REMARK   77  A    between atoms: _194  and  _195
REMARK   78  A    between atoms: _195  and  _196
REMARK   79  A    between atoms: _205  and  _207
REMARK   80  A    between atoms: _207  and  _208
REMARK   81  A    between atoms: _207  and  _210
REMARK   82  A    between atoms: _213  and  _215
REMARK   83  A    between atoms: _215  and  _216
REMARK   84  A    between atoms: _215  and  _218
REMARK   85  A    between atoms: _218  and  _219
REMARK   86  A    between atoms: _224  and  _225
REMARK   87  A    between atoms: _227  and  _229
REMARK   88  A    between atoms: _229  and  _230
REMARK   89  A    between atoms: _229  and  _232
REMARK   90  A    between atoms: _232  and  _233
REMARK   91  A    between atoms: _235  and  _237
REMARK   92  A    between atoms: _237  and  _238
REMARK   93  A    between atoms: _237  and  _240
REMARK   94  A    between atoms: _240  and  _241
REMARK   95  A    between atoms: _246  and  _248
REMARK   96  A    between atoms: _248  and  _249
REMARK   97  A    between atoms: _248  and  _251
REMARK   98  A    between atoms: _251  and  _252
REMARK   99  A    between atoms: _252  and  _253
REMARK  100  A    between atoms: _256  and  _258
REMARK  101  A    between atoms: _258  and  _259
REMARK  102  A    between atoms: _258  and  _261
REMARK  103  A    between atoms: _261  and  _262
REMARK  104  A    between atoms: _267  and  _268
REMARK  105  A    between atoms: _270  and  _272
REMARK  106  A    between atoms: _272  and  _273
REMARK  107  A    between atoms: _276  and  _278
REMARK  108  A    between atoms: _278  and  _279
REMARK  109  A    between atoms: _278  and  _281
REMARK  110  A    between atoms: _281  and  _282
REMARK  111  A    between atoms: _286  and  _287
REMARK  112  A    between atoms: _292  and  _294
REMARK  113  A    between atoms: _294  and  _295
REMARK  114  A    between atoms: _294  and  _297
REMARK  115  A    between atoms: _297  and  _298
REMARK  116  A    between atoms: _301  and  _303
REMARK  117  A    between atoms: _303  and  _304
REMARK  118  A    between atoms: _303  and  _306
REMARK  119  A    between atoms: _306  and  _307
REMARK  120  A    between atoms: _307  and  _308
REMARK  121  A    between atoms: _313  and  _315
REMARK  122  A    between atoms: _315  and  _316
REMARK  123  A    between atoms: _315  and  _318
REMARK  124  A    between atoms: _318  and  _319
REMARK  125  A    between atoms: _322  and  _324
REMARK  126  A    between atoms: _324  and  _325
REMARK  127  A    between atoms: _324  and  _327
REMARK  128  A    between atoms: _327  and  _328
REMARK  129  A    between atoms: _331  and  _333
REMARK  130  A    between atoms: _333  and  _334
REMARK  131  A    between atoms: _333  and  _336
REMARK  132  A    between atoms: _336  and  _337
REMARK  133  A    between atoms: _343  and  _345
REMARK  134  A    between atoms: _345  and  _346
REMARK  135  A    between atoms: _348  and  _350
REMARK  136  A    between atoms: _350  and  _351
REMARK  137  A    between atoms: _350  and  _353
REMARK  138  A    between atoms: _353  and  _354
REMARK  139  A    between atoms: _357  and  _359
REMARK  140  A    between atoms: _359  and  _360
REMARK  141  A    between atoms: _363  and  _365
REMARK  142  A    between atoms: _365  and  _366
REMARK  143  A    between atoms: _365  and  _368
REMARK  144  A    between atoms: _368  and  _369
REMARK  145  A    between atoms: _379  and  _381
REMARK  146  A    between atoms: _381  and  _382
REMARK  147  A    between atoms: _381  and  _384
REMARK  148  A    between atoms: _384  and  _385
REMARK  149  A    between atoms: _387  and  _389
REMARK  150  A    between atoms: _389  and  _390
REMARK  151  A    between atoms: _389  and  _392
REMARK  152  A    between atoms: _392  and  _393
REMARK  153  A    between atoms: _398  and  _399
REMARK  154  A    between atoms: _401  and  _403
REMARK  155  A    between atoms: _403  and  _404
REMARK  156  A    between atoms: _403  and  _406
REMARK  157  A    between atoms: _406  and  _407
REMARK  158  A    between atoms: _412  and  _413
REMARK  159  A    between atoms: _415  and  _417
REMARK  160  A    between atoms: _417  and  _418
REMARK  161  A    between atoms: _417  and  _420
REMARK  162  A    between atoms: _420  and  _421
REMARK  163  A    between atoms: _424  and  _426
REMARK  164  A    between atoms: _426  and  _427
REMARK  165  A    between atoms: _429  and  _431
REMARK  166  A    between atoms: _431  and  _432
REMARK  167  A    between atoms: _431  and  _434
REMARK  168  A    between atoms: _434  and  _435
REMARK  169  A    between atoms: _440  and  _441
REMARK  170  A    between atoms: _443  and  _445
REMARK  171  A    between atoms: _445  and  _446
REMARK  172  A    between atoms: _445  and  _448
REMARK  173  A    between atoms: _448  and  _449
REMARK  174  A    between atoms: _452  and  _454
REMARK  175  A    between atoms: _454  and  _455
REMARK  176  A    between atoms: _454  and  _457
REMARK  177  A    between atoms: _457  and  _458
REMARK  178  A    between atoms: _458  and  _459
REMARK  179  A    between atoms: _459  and  _460
REMARK  180  A    between atoms: _469  and  _471
REMARK  181  A    between atoms: _471  and  _472
REMARK  182  A    between atoms: _471  and  _474
REMARK  183  A    between atoms: _474  and  _475
REMARK  184  A    between atoms: _478  and  _480
REMARK  185  A    between atoms: _480  and  _481
REMARK  186  A    between atoms: _480  and  _483
REMARK  187  A    between atoms: _483  and  _484
REMARK  188  A    between atoms: _487  and  _489
REMARK  189  A    between atoms: _489  and  _490
REMARK  190  A    between atoms: _489  and  _492
REMARK  191  A    between atoms: _492  and  _493
REMARK  192  A    between atoms: _493  and  _494
REMARK  193  A    between atoms: _494  and  _495
REMARK  194  A    between atoms: _504  and  _506
REMARK  195  A    between atoms: _506  and  _507
REMARK  196  A    between atoms: _506  and  _509
REMARK  197  A    between atoms: _509  and  _510
REMARK  198  A    between atoms: _513  and  _515
REMARK  199  A    between atoms: _515  and  _516
REMARK  200  A    between atoms: _515  and  _518
REMARK  201  A    between atoms: _518  and  _519
REMARK  202  A    between atoms: _519  and  _520
REMARK  203  A    between atoms: _520  and  _521
REMARK  204  A    between atoms: _521  and  _522
REMARK  205  A    between atoms: _526  and  _528
REMARK  206  A    between atoms: _528  and  _529
REMARK  207  A    between atoms: _528  and  _531
REMARK  208  A    between atoms: _531  and  _532
REMARK  209  A    between atoms: _532  and  _533
REMARK  210  A    between atoms: _538  and  _540
REMARK  211  A    between atoms: _540  and  _541
REMARK  212  A    between atoms: _540  and  _543
REMARK  213  A    between atoms: _543  and  _544
REMARK  214  A    between atoms: _549  and  _551
REMARK  215  A    between atoms: _551  and  _552
REMARK  216  A    between atoms: _555  and  _557
REMARK  217  A    between atoms: _557  and  _558
REMARK  218  A    between atoms: _557  and  _560
REMARK  219  A    between atoms: _560  and  _561
REMARK  220  A    between atoms: _564  and  _566
REMARK  221  A    between atoms: _566  and  _567
REMARK  222  A    between atoms: _566  and  _569
REMARK  223  A    between atoms: _569  and  _570
REMARK  224  A    between atoms: _570  and  _571
REMARK  225  A    between atoms: _571  and  _572
REMARK  226  A    between atoms: _581  and  _583
REMARK  227  A    between atoms: _583  and  _584
REMARK  228  A    between atoms: _583  and  _586
REMARK  229  A    between atoms: _589  and  _591
REMARK  230  A    between atoms: _591  and  _592
REMARK  231  A    between atoms: _591  and  _594
REMARK  232  A    between atoms: _594  and  _595
REMARK  233  A    between atoms: _600  and  _601
REMARK  234  A    between atoms: _603  and  _605
REMARK  235  A    between atoms: _605  and  _606
REMARK  236  A    between atoms: _605  and  _608
REMARK  237  A    between atoms: _608  and  _609
REMARK  238  A    between atoms: _611  and  _613
REMARK  239  A    between atoms: _613  and  _614
REMARK  240  A    between atoms: _613  and  _616
REMARK  241  A    between atoms: _616  and  _617
REMARK  242  A    between atoms: _622  and  _624
REMARK  243  A    between atoms: _624  and  _625
REMARK  244  A    between atoms: _624  and  _627
REMARK  245  A    between atoms: _627  and  _628
REMARK  246  A    between atoms: _628  and  _629
REMARK  247  A    between atoms: _632  and  _634
REMARK  248  A    between atoms: _634  and  _635
REMARK  249  A    between atoms: _634  and  _637
REMARK  250  A    between atoms: _637  and  _638
REMARK  251  A    between atoms: _643  and  _644
REMARK  252  A    between atoms: _646  and  _648
REMARK  253  A    between atoms: _648  and  _649
REMARK  254  A    between atoms: _652  and  _654
REMARK  255  A    between atoms: _654  and  _655
REMARK  256  A    between atoms: _654  and  _657
REMARK  257  A    between atoms: _657  and  _658
REMARK  258  A    between atoms: _662  and  _663
REMARK  259  A    between atoms: _668  and  _670
REMARK  260  A    between atoms: _670  and  _671
REMARK  261  A    between atoms: _670  and  _673
REMARK  262  A    between atoms: _673  and  _674
REMARK  263  A    between atoms: _677  and  _679
REMARK  264  A    between atoms: _679  and  _680
REMARK  265  A    between atoms: _679  and  _682
REMARK  266  A    between atoms: _682  and  _683
REMARK  267  A    between atoms: _683  and  _684
REMARK  268  A    between atoms: _689  and  _691
REMARK  269  A    between atoms: _691  and  _692
REMARK  270  A    between atoms: _691  and  _694
REMARK  271  A    between atoms: _694  and  _695
REMARK  272  A    between atoms: _698  and  _700
REMARK  273  A    between atoms: _700  and  _701
REMARK  274  A    between atoms: _700  and  _703
REMARK  275  A    between atoms: _703  and  _704
REMARK  276  A    between atoms: _707  and  _709
REMARK  277  A    between atoms: _709  and  _710
REMARK  278  A    between atoms: _709  and  _712
REMARK  279  A    between atoms: _712  and  _713
REMARK                            x       y       z     vdW  Elec       q    Type
REMARK                         _______ _______ _______ _____ _____    ______ ____
ROOT
ATOM      1  C   TYR A   7     -47.136   5.453  77.791  0.00  0.00    +0.241 C 
ATOM      2  N   ILE A   8     -47.133   4.172  77.514  0.00  0.00    -0.297 N 
ATOM      3  H   ILE A   8     -47.583   3.529  78.196  0.00  0.00    +0.150 HD
ATOM      4  O   TYR A   7     -46.675   6.341  76.989  0.00  0.00    -0.273 OA
ENDROOT
BRANCH   2   5
ATOM      5  CA  ILE A   8     -46.544   3.586  76.317  0.00  0.00    +0.149 C 
BRANCH   5   6
ATOM      6  C   ILE A   8     -47.150   4.080  75.041  0.00  0.00    +0.241 C 
ATOM      7  N   GLY A   9     -48.468   4.184  74.981  0.00  0.00    -0.295 N 
ATOM      8  H   GLY A   9     -49.049   3.985  75.820  0.00  0.00    +0.150 HD
ATOM      9  O   ILE A   8     -46.428   4.461  74.143  0.00  0.00    -0.273 OA
BRANCH   7  10
ATOM     10  CA  GLY A   9     -49.106   4.585  73.710  0.00  0.00    +0.176 C 
BRANCH  10  11
ATOM     11  C   GLY A   9     -49.466   6.050  73.575  0.00  0.00    +0.243 C 
ATOM     12  N   TYR A  10     -49.201   6.818  74.619  0.00  0.00    -0.297 N 
ATOM     13  H   TYR A  10     -48.813   6.416  75.496  0.00  0.00    +0.150 HD
ATOM     14  O   GLY A   9     -50.004   6.481  72.527  0.00  0.00    -0.273 OA
BRANCH  12  15
ATOM     15  CA  TYR A  10     -49.467   8.229  74.502  0.00  0.00    +0.153 C 
BRANCH  15  16
ATOM     16  C   TYR A  10     -48.475   9.197  75.147  0.00  0.00    +0.241 C 
ATOM     17  N   LEU A  11     -48.335   9.135  76.465  0.00  0.00    -0.297 N 
ATOM     18  H   LEU A  11     -48.812   8.380  76.999  0.00  0.00    +0.150 HD
ATOM     19  O   TYR A  10     -47.878   9.988  74.423  0.00  0.00    -0.273 OA
BRANCH  17  20
ATOM     20  CA  LEU A  11     -47.537  10.094  77.157  0.00  0.00    +0.149 C 
BRANCH  20  21
ATOM     21  C   LEU A  11     -46.040  10.057  76.658  0.00  0.00    +0.241 C 
ATOM     22  N   ARG A  12     -45.466   8.883  76.503  0.00  0.00    -0.297 N 
ATOM     23  H   ARG A  12     -46.019   8.013  76.640  0.00  0.00    +0.150 HD
ATOM     24  O   LEU A  11     -45.445  11.116  76.451  0.00  0.00    -0.273 OA
BRANCH  22  25
ATOM     25  CA  ARG A  12     -44.075   8.801  76.145  0.00  0.00    +0.149 C 
BRANCH  25  26
ATOM     26  C   ARG A  12     -43.919   9.210  74.682  0.00  0.00    +0.241 C 
ATOM     27  O   ARG A  12     -42.823   9.472  74.270  0.00  0.00    -0.273 OA
ATOM     28  N   LEU A  13     -45.026   9.287  73.921  0.00  0.00    -0.297 N 
ATOM     29  H   LEU A  13     -45.942   9.036  74.345  0.00  0.00    +0.150 HD
BRANCH  28  30
ATOM     30  CA  LEU A  13     -44.993   9.703  72.545  0.00  0.00    +0.149 C 
BRANCH  30  31
ATOM     31  C   LEU A  13     -45.136  11.190  72.382  0.00  0.00    +0.241 C 
ATOM     32  N   ILE A  14     -45.935  11.804  73.204  0.00  0.00    -0.298 N 
ATOM     33  H   ILE A  14     -46.344  11.284  74.007  0.00  0.00    +0.150 HD
ATOM     34  O   LEU A  13     -44.555  11.786  71.485  0.00  0.00    -0.273 OA
BRANCH  32  35
ATOM     35  CA  ILE A  14     -46.264  13.207  73.015  0.00  0.00    +0.137 C 
BRANCH  35  36
ATOM     36  C   ILE A  14     -45.505  14.153  73.955  0.00  0.00    +0.227 C 
ATOM     37  O   ILE A  14     -45.240  15.283  73.591  0.00  0.00    -0.286 OA
ENDBRANCH  35  36
BRANCH  35  38
ATOM     38  CB  ILE A  14     -47.752  13.501  73.105  0.00  0.00    +0.026 C 
ATOM     39  CG2 ILE A  14     -48.560  12.669  72.117  0.00  0.00    +0.002 C 
BRANCH  38  40
ATOM     40  CG1 ILE A  14     -48.260  13.320  74.491  0.00  0.00    +0.002 C 
ATOM     41  CD1 ILE A  14     -49.476  14.164  74.737  0.00  0.00    +0.000 C 
ENDBRANCH  38  40
ENDBRANCH  35  38
ENDBRANCH  32  35
ENDBRANCH  30  31
BRANCH  30  42
ATOM     42  CB  LEU A  13     -46.074   9.023  71.702  0.00  0.00    +0.029 C 
BRANCH  42  43
ATOM     43  CG  LEU A  13     -46.106   7.504  71.679  0.00  0.00    +0.002 C 
ATOM     44  CD2 LEU A  13     -44.741   6.877  71.396  0.00  0.00    +0.000 C 
ATOM     45  CD1 LEU A  13     -47.208   7.101  70.688  0.00  0.00    +0.000 C 
ENDBRANCH  42  43
ENDBRANCH  30  42
ENDBRANCH  28  30
ENDBRANCH  25  26
BRANCH  25  46
ATOM     46  CB  ARG A  12     -43.491   7.410  76.411  0.00  0.00    +0.033 C 
BRANCH  46  47
ATOM     47  CG  ARG A  12     -43.645   6.412  75.265  0.00  0.00    +0.045 C 
BRANCH  47  48
ATOM     48  CD  ARG A  12     -42.819   5.168  75.497  0.00  0.00    +0.174 C 
BRANCH  48  49
ATOM     49  NE  ARG A  12     -43.216   4.143  74.498  0.00  0.00    -0.265 N 
ATOM     50  CZ  ARG A  12     -42.579   2.979  74.327  0.00  0.00    +0.342 C 
ATOM     51  NH2 ARG A  12     -41.536   2.684  75.068  0.00  0.00    -0.292 N 
ATOM     52 HH21 ARG A  12     -41.204   3.356  75.789  0.00  0.00    +0.255 HD
ATOM     53 HH22 ARG A  12     -41.042   1.779  74.934  0.00  0.00    +0.255 HD
ATOM     54  NH1 ARG A  12     -43.000   2.049  73.456  0.00  0.00    -0.292 N 
ATOM     55 HH11 ARG A  12     -42.475   1.157  73.354  0.00  0.00    +0.255 HD
ATOM     56 HH12 ARG A  12     -43.851   2.220  72.883  0.00  0.00    +0.255 HD
ATOM     57  HE  ARG A  12     -44.039   4.342  73.895  0.00  0.00    +0.259 HD
ENDBRANCH  48  49
ENDBRANCH  47  48
ENDBRANCH  46  47
ENDBRANCH  25  46
ENDBRANCH  22  25
ENDBRANCH  20  21
BRANCH  20  58
ATOM     58  CB  LEU A  11     -47.607   9.959  78.653  0.00  0.00    +0.029 C 
BRANCH  58  59
ATOM     59  CG  LEU A  11     -48.929  10.220  79.348  0.00  0.00    +0.002 C 
ATOM     60  CD2 LEU A  11     -48.837  10.191  80.857  0.00  0.00    +0.000 C 
ATOM     61  CD1 LEU A  11     -49.490  11.512  78.836  0.00  0.00    +0.000 C 
ENDBRANCH  58  59
ENDBRANCH  20  58
ENDBRANCH  17  20
ENDBRANCH  15  16
BRANCH  15  62
ATOM     62  CB  TYR A  10     -50.841   8.436  75.110  0.00  0.00    +0.055 C 
BRANCH  62  63
ATOM     63  CG  TYR A  10     -51.385   9.799  74.985  0.00  0.00    -0.020 A 
ATOM     64  CD2 TYR A  10     -51.687  10.579  76.101  0.00  0.00    -0.001 A 
ATOM     65  CE2 TYR A  10     -52.280  11.852  75.964  0.00  0.00    +0.036 A 
ATOM     66  CZ  TYR A  10     -52.481  12.343  74.721  0.00  0.00    +0.134 A 
ATOM     67  CE1 TYR A  10     -52.117  11.607  73.585  0.00  0.00    +0.036 A 
ATOM     68  CD1 TYR A  10     -51.568  10.359  73.737  0.00  0.00    -0.001 A 
BRANCH  66  69
ATOM     69  OH  TYR A  10     -52.997  13.607  74.569  0.00  0.00    -0.506 OA
ATOM     70  HH  TYR A  10     -53.889  13.652  74.997  0.00  0.00    +0.292 HD
ENDBRANCH  66  69
ENDBRANCH  62  63
ENDBRANCH  15  62
ENDBRANCH  12  15
ENDBRANCH  10  11
ENDBRANCH   7  10
ENDBRANCH   5   6
BRANCH   5  71
ATOM     71  CB  ILE A   8     -46.652   2.067  76.328  0.00  0.00    +0.027 C 
ATOM     72  CG2 ILE A   8     -46.320   1.494  74.954  0.00  0.00    +0.002 C 
BRANCH  71  73
ATOM     73  CG1 ILE A   8     -45.815   1.518  77.429  0.00  0.00    +0.002 C 
ATOM     74  CD1 ILE A   8     -44.322   2.011  77.389  0.00  0.00    +0.000 C 
ENDBRANCH  71  73
ENDBRANCH   5  71
ENDBRANCH   2   5
BRANCH   1  75
ATOM     75  CA  TYR A   7     -47.757   5.858  79.098  0.00  0.00    +0.153 C 
BRANCH  75  77
ATOM     76  C   TYR A   6     -50.121   6.039  78.582  0.00  0.00    +0.241 C 
ATOM     77  N   TYR A   7     -49.159   5.423  79.222  0.00  0.00    -0.297 N 
ATOM     78  H   TYR A   7     -49.389   4.611  79.830  0.00  0.00    +0.150 HD
ATOM     79  O   TYR A   6     -49.903   6.996  77.890  0.00  0.00    -0.273 OA
BRANCH  76  80
ATOM     80  CA  TYR A   6     -51.562   5.418  78.721  0.00  0.00    +0.153 C 
BRANCH  80  82
ATOM     81  C   SER A   5     -51.062   3.209  77.784  0.00  0.00    +0.243 C 
ATOM     82  N   TYR A   6     -51.521   3.963  78.811  0.00  0.00    -0.297 N 
ATOM     83  H   TYR A   6     -51.850   3.496  79.680  0.00  0.00    +0.150 HD
ATOM     84  O   SER A   5     -50.683   3.676  76.711  0.00  0.00    -0.273 OA
BRANCH  81  85
ATOM     85  CA  SER A   5     -51.048   1.722  78.028  0.00  0.00    +0.178 C 
BRANCH  85  87
ATOM     86  C   TRP A   4     -49.288   1.717  79.720  0.00  0.00    +0.241 C 
ATOM     87  N   SER A   5     -50.538   1.407  79.346  0.00  0.00    -0.295 N 
ATOM     88  H   SER A   5     -51.161   0.925  80.025  0.00  0.00    +0.150 HD
ATOM     89  O   TRP A   4     -48.481   2.189  78.959  0.00  0.00    -0.273 OA
BRANCH  86  90
ATOM     90  CA  TRP A   4     -48.917   1.428  81.127  0.00  0.00    +0.153 C 
BRANCH  90  92
ATOM     91  C   ALA A   3     -50.477   2.919  82.278  0.00  0.00    +0.241 C 
ATOM     92  N   TRP A   4     -50.046   1.711  82.019  0.00  0.00    -0.297 N 
ATOM     93  H   TRP A   4     -50.530   0.909  82.470  0.00  0.00    +0.150 HD
ATOM     94  O   ALA A   3     -49.994   3.930  81.782  0.00  0.00    -0.273 OA
BRANCH  91  95
ATOM     95  CA  ALA A   3     -51.711   3.068  83.205  0.00  0.00    +0.149 C 
ATOM     96  CB  ALA A   3     -51.271   2.943  84.648  0.00  0.00    +0.031 C 
BRANCH  95  98
ATOM     97  C   LEU A   2     -53.387   2.068  81.750  0.00  0.00    +0.241 C 
ATOM     98  N   ALA A   3     -52.713   2.058  82.884  0.00  0.00    -0.297 N 
ATOM     99  H   ALA A   3     -52.903   1.303  83.574  0.00  0.00    +0.150 HD
ATOM    100  O   LEU A   2     -53.231   2.907  80.904  0.00  0.00    -0.273 OA
BRANCH  97 101
ATOM    101  CA  LEU A   2     -54.437   0.977  81.543  0.00  0.00    +0.149 C 
BRANCH 101 103
ATOM    102  C   GLY A   1     -53.006  -0.958  81.692  0.00  0.00    +0.240 C 
ATOM    103  N   LEU A   2     -54.047  -0.290  82.161  0.00  0.00    -0.297 N 
ATOM    104  H   LEU A   2     -54.587  -0.665  82.967  0.00  0.00    +0.150 HD
ATOM    105  O   GLY A   1     -52.368  -0.560  80.718  0.00  0.00    -0.274 OA
BRANCH 102 106
ATOM    106  CA  GLY A   1     -52.669  -2.283  82.366  0.00  0.00    +0.169 C 
BRANCH 106 107
ATOM    107  N   GLY A   1     -52.660  -2.231  83.766  0.00  0.00    -0.236 NA
ATOM    108  H   GLY A   1     -53.339  -2.822  84.287  0.00  0.00    +0.142 HD
ENDBRANCH 106 107
ENDBRANCH 102 106
ENDBRANCH 101 103
BRANCH 101 109
ATOM    109  CB  LEU A   2     -55.752   1.439  82.020  0.00  0.00    +0.029 C 
BRANCH 109 110
ATOM    110  CG  LEU A   2     -56.931   0.504  81.742  0.00  0.00    +0.002 C 
ATOM    111  CD2 LEU A   2     -58.211   1.134  82.225  0.00  0.00    +0.000 C 
ATOM    112  CD1 LEU A   2     -57.054   0.335  80.258  0.00  0.00    +0.000 C 
ENDBRANCH 109 110
ENDBRANCH 101 109
ENDBRANCH  97 101
ENDBRANCH  95  98
ENDBRANCH  91  95
ENDBRANCH  90  92
BRANCH  90 113
ATOM    113  CB  TRP A   4     -48.491  -0.035  81.314  0.00  0.00    +0.057 C 
BRANCH 113 114
ATOM    114  CG  TRP A   4     -47.527  -0.145  82.477  0.00  0.00    -0.002 A 
ATOM    115  CD1 TRP A   4     -47.808  -0.515  83.743  0.00  0.00    +0.068 A 
ATOM    116  NE1 TRP A   4     -46.671  -0.420  84.540  0.00  0.00    -0.352 N 
ATOM    117  HE1 TRP A   4     -46.608  -0.679  85.545  0.00  0.00    +0.166 HD
ATOM    118  CE2 TRP A   4     -45.643   0.076  83.768  0.00  0.00    +0.056 A 
ATOM    119  CZ2 TRP A   4     -44.300   0.307  84.101  0.00  0.00    +0.017 A 
ATOM    120  CH2 TRP A   4     -43.452   0.771  83.103  0.00  0.00    +0.001 A 
ATOM    121  CZ3 TRP A   4     -43.868   0.915  81.808  0.00  0.00    +0.000 A 
ATOM    122  CE3 TRP A   4     -45.246   0.693  81.459  0.00  0.00    +0.001 A 
ATOM    123  CD2 TRP A   4     -46.119   0.207  82.456  0.00  0.00    +0.013 A 
ENDBRANCH 113 114
ENDBRANCH  90 113
ENDBRANCH  86  90
ENDBRANCH  85  87
BRANCH  85 124
ATOM    124  CB  SER A   5     -52.446   1.105  77.867  0.00  0.00    +0.166 C 
BRANCH 124 125
ATOM    125  OG  SER A   5     -53.289   1.801  76.968  0.00  0.00    -0.380 OA
ATOM    126  H   SER A   5     -54.166   1.344  76.919  0.00  0.00    +0.211 HD
ENDBRANCH 124 125
ENDBRANCH  85 124
ENDBRANCH  81  85
ENDBRANCH  80  82
BRANCH  80 127
ATOM    127  CB  TYR A   6     -52.271   5.995  79.877  0.00  0.00    +0.055 C 
BRANCH 127 128
ATOM    128  CG  TYR A   6     -52.605   7.436  79.812  0.00  0.00    -0.020 A 
ATOM    129  CD2 TYR A   6     -52.225   8.320  80.795  0.00  0.00    -0.001 A 
ATOM    130  CE2 TYR A   6     -52.530   9.686  80.737  0.00  0.00    +0.036 A 
ATOM    131  CZ  TYR A   6     -53.348  10.130  79.760  0.00  0.00    +0.134 A 
ATOM    132  CE1 TYR A   6     -53.781   9.263  78.775  0.00  0.00    +0.036 A 
ATOM    133  CD1 TYR A   6     -53.418   7.928  78.803  0.00  0.00    -0.001 A 
BRANCH 131 134
ATOM    134  OH  TYR A   6     -53.739  11.429  79.719  0.00  0.00    -0.506 OA
ATOM    135  HH  TYR A   6     -54.332  11.569  78.939  0.00  0.00    +0.292 HD
ENDBRANCH 131 134
ENDBRANCH 127 128
ENDBRANCH  80 127
ENDBRANCH  76  80
ENDBRANCH  75  77
BRANCH  75 136
ATOM    136  CB  TYR A   7     -47.004   5.341  80.250  0.00  0.00    +0.055 C 
BRANCH 136 137
ATOM    137  CG  TYR A   7     -45.472   5.608  80.121  0.00  0.00    -0.020 A 
ATOM    138  CD2 TYR A   7     -44.968   6.918  80.180  0.00  0.00    -0.001 A 
ATOM    139  CE2 TYR A   7     -43.610   7.180  80.086  0.00  0.00    +0.036 A 
ATOM    140  CZ  TYR A   7     -42.715   6.111  79.947  0.00  0.00    +0.134 A 
ATOM    141  CE1 TYR A   7     -43.227   4.814  79.874  0.00  0.00    +0.036 A 
ATOM    142  CD1 TYR A   7     -44.590   4.583  79.996  0.00  0.00    -0.001 A 
BRANCH 140 143
ATOM    143  OH  TYR A   7     -41.319   6.324  79.857  0.00  0.00    -0.506 OA
ATOM    144  HH  TYR A   7     -40.865   5.844  80.594  0.00  0.00    +0.292 HD
ENDBRANCH 140 143
ENDBRANCH 136 137
ENDBRANCH  75 136
ENDBRANCH   1  75
TORSDOF 55
REMARK  Name = ../refined-set-2016/4loh/4loh_pocket.pdb
REMARK  279 active torsions:
REMARK  status: ('A' for Active; 'I' for Inactive)
REMARK    1  A    between atoms: _1  and  _3
REMARK    2  A    between atoms: _3  and  _4
REMARK    3  A    between atoms: _6  and  _8
REMARK    4  A    between atoms: _8  and  _9
REMARK    5  A    between atoms: _8  and  _11
REMARK    6  A    between atoms: _11  and  _12
REMARK    7  A    between atoms: _15  and  _17
REMARK    8  A    between atoms: _17  and  _18
REMARK    9  A    between atoms: _21  and  _23
REMARK   10  A    between atoms: _23  and  _24
REMARK   11  A    between atoms: _23  and  _26
REMARK   12  A    between atoms: _26  and  _27
REMARK   13  A    between atoms: _37  and  _39
REMARK   14  A    between atoms: _39  and  _40
REMARK   15  A    between atoms: _39  and  _42
REMARK   16  A    between atoms: _42  and  _43
REMARK   17  A    between atoms: _45  and  _47
REMARK   18  A    between atoms: _47  and  _48
REMARK   19  A    between atoms: _47  and  _50
REMARK   20  A    between atoms: _50  and  _51
REMARK   21  A    between atoms: _56  and  _57
REMARK   22  A    between atoms: _59  and  _61
REMARK   23  A    between atoms: _61  and  _62
REMARK   24  A    between atoms: _61  and  _64
REMARK   25  A    between atoms: _64  and  _65
REMARK   26  A    between atoms: _70  and  _71
REMARK   27  A    between atoms: _73  and  _75
REMARK   28  A    between atoms: _75  and  _76
REMARK   29  A    between atoms: _75  and  _78
REMARK   30  A    between atoms: _78  and  _79
REMARK   31  A    between atoms: _82  and  _84
REMARK   32  A    between atoms: _84  and  _85
REMARK   33  A    between atoms: _87  and  _89
REMARK   34  A    between atoms: _89  and  _90
REMARK   35  A    between atoms: _89  and  _92
REMARK   36  A    between atoms: _92  and  _93
REMARK   37  A    between atoms: _98  and  _99
REMARK   38  A    between atoms: _101  and  _103
REMARK   39  A    between atoms: _103  and  _104
REMARK   40  A    between atoms: _103  and  _106
REMARK   41  A    between atoms: _106  and  _107
REMARK   42  A    between atoms: _110  and  _112
REMARK   43  A    between atoms: _112  and  _113
REMARK   44  A    between atoms: _112  and  _115
REMARK   45  A    between atoms: _115  and  _116
REMARK   46  A    between atoms: _116  and  _117
REMARK   47  A    between atoms: _117  and  _118
REMARK   48  A    between atoms: _127  and  _129
REMARK   49  A    between atoms: _129  and  _130
REMARK   50  A    between atoms: _129  and  _132
REMARK   51  A    between atoms: _132  and  _133
REMARK   52  A    between atoms: _136  and  _138
REMARK   53  A    between atoms: _138  and  _139
REMARK   54  A    between atoms: _138  and  _141
REMARK   55  A    between atoms: _141  and  _142
REMARK   56  A    between atoms: _145  and  _147
REMARK   57  A    between atoms: _147  and  _148
REMARK   58  A    between atoms: _147  and  _150
REMARK   59  A    between atoms: _150  and  _151
REMARK   60  A    between atoms: _151  and  _152
REMARK   61  A    between atoms: _157  and  _159
REMARK   62  A    between atoms: _159  and  _160
REMARK   63  A    between atoms: _159  and  _162
REMARK   64  A    between atoms: _162  and  _163
REMARK   65  A    between atoms: _168  and  _170
REMARK   66  A    between atoms: _170  and  _171
REMARK   67  A    between atoms: _174  and  _176
REMARK   68  A    between atoms: _176  and  _177
REMARK   69  A    between atoms: _179  and  _181
REMARK   70  A    between atoms: _181  and  _182
REMARK   71  A    between atoms: _181  and  _184
REMARK   72  A    between atoms: _184  and  _185
REMARK   73  A    between atoms: _188  and  _190
REMARK   74  A    between atoms: _190  and  _191
REMARK   75  A    between atoms: _190  and  _193
REMARK   76  A    between atoms: _193  and  _194
REMARK   77  A    between atoms: _194  and  _195
REMARK   78  A    between atoms: _195  and  _196
REMARK   79  A    between atoms: _205  and  _207
REMARK   80  A    between atoms: _207  and  _208
REMARK   81  A    between atoms: _207  and  _210
REMARK   82  A    between atoms: _213  and  _215
REMARK   83  A    between atoms: _215  and  _216
REMARK   84  A    between atoms: _215  and  _218
REMARK   85  A    between atoms: _218  and  _219
REMARK   86  A    between atoms: _224  and  _225
REMARK   87  A    between atoms: _227  and  _229
REMARK   88  A    between atoms: _229  and  _230
REMARK   89  A    between atoms: _229  and  _232
REMARK   90  A    between atoms: _232  and  _233
REMARK   91  A    between atoms: _235  and  _237
REMARK   92  A    between atoms: _237  and  _238
REMARK   93  A    between atoms: _237  and  _240
REMARK   94  A    between atoms: _240  and  _241
REMARK   95  A    between atoms: _246  and  _248
REMARK   96  A    between atoms: _248  and  _249
REMARK   97  A    between atoms: _248  and  _251
REMARK   98  A    between atoms: _251  and  _252
REMARK   99  A    between atoms: _252  and  _253
REMARK  100  A    between atoms: _256  and  _258
REMARK  101  A    between atoms: _258  and  _259
REMARK  102  A    between atoms: _258  and  _261
REMARK  103  A    between atoms: _261  and  _262
REMARK  104  A    between atoms: _267  and  _268
REMARK  105  A    between atoms: _270  and  _272
REMARK  106  A    between atoms: _272  and  _273
REMARK  107  A    between atoms: _276  and  _278
REMARK  108  A    between atoms: _278  and  _279
REMARK  109  A    between atoms: _278  and  _281
REMARK  110  A    between atoms: _281  and  _282
REMARK  111  A    between atoms: _286  and  _287
REMARK  112  A    between atoms: _292  and  _294
REMARK  113  A    between atoms: _294  and  _295
REMARK  114  A    between atoms: _294  and  _297
REMARK  115  A    between atoms: _297  and  _298
REMARK  116  A    between atoms: _301  and  _303
REMARK  117  A    between atoms: _303  and  _304
REMARK  118  A    between atoms: _303  and  _306
REMARK  119  A    between atoms: _306  and  _307
REMARK  120  A    between atoms: _307  and  _308
REMARK  121  A    between atoms: _313  and  _315
REMARK  122  A    between atoms: _315  and  _316
REMARK  123  A    between atoms: _315  and  _318
REMARK  124  A    between atoms: _318  and  _319
REMARK  125  A    between atoms: _322  and  _324
REMARK  126  A    between atoms: _324  and  _325
REMARK  127  A    between atoms: _324  and  _327
REMARK  128  A    between atoms: _327  and  _328
REMARK  129  A    between atoms: _331  and  _333
REMARK  130  A    between atoms: _333  and  _334
REMARK  131  A    between atoms: _333  and  _336
REMARK  132  A    between atoms: _336  and  _337
REMARK  133  A    between atoms: _343  and  _345
REMARK  134  A    between atoms: _345  and  _346
REMARK  135  A    between atoms: _348  and  _350
REMARK  136  A    between atoms: _350  and  _351
REMARK  137  A    between atoms: _350  and  _353
REMARK  138  A    between atoms: _353  and  _354
REMARK  139  A    between atoms: _357  and  _359
REMARK  140  A    between atoms: _359  and  _360
REMARK  141  A    between atoms: _363  and  _365
REMARK  142  A    between atoms: _365  and  _366
REMARK  143  A    between atoms: _365  and  _368
REMARK  144  A    between atoms: _368  and  _369
REMARK  145  A    between atoms: _379  and  _381
REMARK  146  A    between atoms: _381  and  _382
REMARK  147  A    between atoms: _381  and  _384
REMARK  148  A    between atoms: _384  and  _385
REMARK  149  A    between atoms: _387  and  _389
REMARK  150  A    between atoms: _389  and  _390
REMARK  151  A    between atoms: _389  and  _392
REMARK  152  A    between atoms: _392  and  _393
REMARK  153  A    between atoms: _398  and  _399
REMARK  154  A    between atoms: _401  and  _403
REMARK  155  A    between atoms: _403  and  _404
REMARK  156  A    between atoms: _403  and  _406
REMARK  157  A    between atoms: _406  and  _407
REMARK  158  A    between atoms: _412  and  _413
REMARK  159  A    between atoms: _415  and  _417
REMARK  160  A    between atoms: _417  and  _418
REMARK  161  A    between atoms: _417  and  _420
REMARK  162  A    between atoms: _420  and  _421
REMARK  163  A    between atoms: _424  and  _426
REMARK  164  A    between atoms: _426  and  _427
REMARK  165  A    between atoms: _429  and  _431
REMARK  166  A    between atoms: _431  and  _432
REMARK  167  A    between atoms: _431  and  _434
REMARK  168  A    between atoms: _434  and  _435
REMARK  169  A    between atoms: _440  and  _441
REMARK  170  A    between atoms: _443  and  _445
REMARK  171  A    between atoms: _445  and  _446
REMARK  172  A    between atoms: _445  and  _448
REMARK  173  A    between atoms: _448  and  _449
REMARK  174  A    between atoms: _452  and  _454
REMARK  175  A    between atoms: _454  and  _455
REMARK  176  A    between atoms: _454  and  _457
REMARK  177  A    between atoms: _457  and  _458
REMARK  178  A    between atoms: _458  and  _459
REMARK  179  A    between atoms: _459  and  _460
REMARK  180  A    between atoms: _469  and  _471
REMARK  181  A    between atoms: _471  and  _472
REMARK  182  A    between atoms: _471  and  _474
REMARK  183  A    between atoms: _474  and  _475
REMARK  184  A    between atoms: _478  and  _480
REMARK  185  A    between atoms: _480  and  _481
REMARK  186  A    between atoms: _480  and  _483
REMARK  187  A    between atoms: _483  and  _484
REMARK  188  A    between atoms: _487  and  _489
REMARK  189  A    between atoms: _489  and  _490
REMARK  190  A    between atoms: _489  and  _492
REMARK  191  A    between atoms: _492  and  _493
REMARK  192  A    between atoms: _493  and  _494
REMARK  193  A    between atoms: _494  and  _495
REMARK  194  A    between atoms: _504  and  _506
REMARK  195  A    between atoms: _506  and  _507
REMARK  196  A    between atoms: _506  and  _509
REMARK  197  A    between atoms: _509  and  _510
REMARK  198  A    between atoms: _513  and  _515
REMARK  199  A    between atoms: _515  and  _516
REMARK  200  A    between atoms: _515  and  _518
REMARK  201  A    between atoms: _518  and  _519
REMARK  202  A    between atoms: _519  and  _520
REMARK  203  A    between atoms: _520  and  _521
REMARK  204  A    between atoms: _521  and  _522
REMARK  205  A    between atoms: _526  and  _528
REMARK  206  A    between atoms: _528  and  _529
REMARK  207  A    between atoms: _528  and  _531
REMARK  208  A    between atoms: _531  and  _532
REMARK  209  A    between atoms: _532  and  _533
REMARK  210  A    between atoms: _538  and  _540
REMARK  211  A    between atoms: _540  and  _541
REMARK  212  A    between atoms: _540  and  _543
REMARK  213  A    between atoms: _543  and  _544
REMARK  214  A    between atoms: _549  and  _551
REMARK  215  A    between atoms: _551  and  _552
REMARK  216  A    between atoms: _555  and  _557
REMARK  217  A    between atoms: _557  and  _558
REMARK  218  A    between atoms: _557  and  _560
REMARK  219  A    between atoms: _560  and  _561
REMARK  220  A    between atoms: _564  and  _566
REMARK  221  A    between atoms: _566  and  _567
REMARK  222  A    between atoms: _566  and  _569
REMARK  223  A    between atoms: _569  and  _570
REMARK  224  A    between atoms: _570  and  _571
REMARK  225  A    between atoms: _571  and  _572
REMARK  226  A    between atoms: _581  and  _583
REMARK  227  A    between atoms: _583  and  _584
REMARK  228  A    between atoms: _583  and  _586
REMARK  229  A    between atoms: _589  and  _591
REMARK  230  A    between atoms: _591  and  _592
REMARK  231  A    between atoms: _591  and  _594
REMARK  232  A    between atoms: _594  and  _595
REMARK  233  A    between atoms: _600  and  _601
REMARK  234  A    between atoms: _603  and  _605
REMARK  235  A    between atoms: _605  and  _606
REMARK  236  A    between atoms: _605  and  _608
REMARK  237  A    between atoms: _608  and  _609
REMARK  238  A    between atoms: _611  and  _613
REMARK  239  A    between atoms: _613  and  _614
REMARK  240  A    between atoms: _613  and  _616
REMARK  241  A    between atoms: _616  and  _617
REMARK  242  A    between atoms: _622  and  _624
REMARK  243  A    between atoms: _624  and  _625
REMARK  244  A    between atoms: _624  and  _627
REMARK  245  A    between atoms: _627  and  _628
REMARK  246  A    between atoms: _628  and  _629
REMARK  247  A    between atoms: _632  and  _634
REMARK  248  A    between atoms: _634  and  _635
REMARK  249  A    between atoms: _634  and  _637
REMARK  250  A    between atoms: _637  and  _638
REMARK  251  A    between atoms: _643  and  _644
REMARK  252  A    between atoms: _646  and  _648
REMARK  253  A    between atoms: _648  and  _649
REMARK  254  A    between atoms: _652  and  _654
REMARK  255  A    between atoms: _654  and  _655
REMARK  256  A    between atoms: _654  and  _657
REMARK  257  A    between atoms: _657  and  _658
REMARK  258  A    between atoms: _662  and  _663
REMARK  259  A    between atoms: _668  and  _670
REMARK  260  A    between atoms: _670  and  _671
REMARK  261  A    between atoms: _670  and  _673
REMARK  262  A    between atoms: _673  and  _674
REMARK  263  A    between atoms: _677  and  _679
REMARK  264  A    between atoms: _679  and  _680
REMARK  265  A    between atoms: _679  and  _682
REMARK  266  A    between atoms: _682  and  _683
REMARK  267  A    between atoms: _683  and  _684
REMARK  268  A    between atoms: _689  and  _691
REMARK  269  A    between atoms: _691  and  _692
REMARK  270  A    between atoms: _691  and  _694
REMARK  271  A    between atoms: _694  and  _695
REMARK  272  A    between atoms: _698  and  _700
REMARK  273  A    between atoms: _700  and  _701
REMARK  274  A    between atoms: _700  and  _703
REMARK  275  A    between atoms: _703  and  _704
REMARK  276  A    between atoms: _707  and  _709
REMARK  277  A    between atoms: _709  and  _710
REMARK  278  A    between atoms: _709  and  _712
REMARK  279  A    between atoms: _712  and  _713
REMARK                            x       y       z     vdW  Elec       q    Type
REMARK                         _______ _______ _______ _____ _____    ______ ____
ROOT
ATOM      1  NE  ARG A   1     -48.285  18.916  69.210  0.00  0.00    -0.265 N 
ATOM      2  CZ  ARG A   1     -49.239  18.313  69.911  0.00  0.00    +0.342 C 
ATOM      3  NH2 ARG A   1     -48.944  17.561  70.967  0.00  0.00    -0.292 N 
ATOM      4 HH21 ARG A   1     -49.704  17.097  71.504  0.00  0.00    +0.255 HD
ATOM      5 HH22 ARG A   1     -47.953  17.437  71.257  0.00  0.00    +0.255 HD
ATOM      6  NH1 ARG A   1     -50.506  18.452  69.556  0.00  0.00    -0.292 N 
ATOM      7 HH11 ARG A   1     -51.254  17.981  70.104  0.00  0.00    +0.255 HD
ATOM      8 HH12 ARG A   1     -50.754  19.033  68.729  0.00  0.00    +0.255 HD
ATOM      9  HE  ARG A   1     -48.582  19.508  68.408  0.00  0.00    +0.259 HD
ENDROOT
BRANCH   1  10
ATOM     10  CD  ARG A   1     -46.839  18.813  69.477  0.00  0.00    +0.174 C 
BRANCH  10  11
ATOM     11  CG  ARG A   1     -46.064  20.076  69.067  0.00  0.00    +0.045 C 
BRANCH  11  12
ATOM     12  CB  ARG A   1     -46.349  21.248  70.006  0.00  0.00    +0.029 C 
BRANCH  12  13
ATOM     13  CA  ARG A   1     -45.294  22.353  69.899  0.00  0.00    +0.133 C 
BRANCH  13  14
ATOM     14  N   ARG A   1     -43.998  21.979  70.505  0.00  0.00    -0.239 NA
ATOM     15  H   ARG A   1     -43.892  21.097  71.045  0.00  0.00    +0.142 HD
ENDBRANCH  13  14
BRANCH  13  16
ATOM     16  C   ARG A   1     -45.842  23.590  70.547  0.00  0.00    +0.224 C 
ATOM     17  O   ARG A   1     -46.472  24.372  69.888  0.00  0.00    -0.287 OA
ENDBRANCH  13  16
ENDBRANCH  12  13
ENDBRANCH  11  12
ENDBRANCH  10  11
ENDBRANCH   1  10
TORSDOF 6
REMARK  Name = ../refined-set-2016/4loh/4loh_pocket.pdb
REMARK  279 active torsions:
REMARK  status: ('A' for Active; 'I' for Inactive)
REMARK    1  A    between atoms: _1  and  _3
REMARK    2  A    between atoms: _3  and  _4
REMARK    3  A    between atoms: _6  and  _8
REMARK    4  A    between atoms: _8  and  _9
REMARK    5  A    between atoms: _8  and  _11
REMARK    6  A    between atoms: _11  and  _12
REMARK    7  A    between atoms: _15  and  _17
REMARK    8  A    between atoms: _17  and  _18
REMARK    9  A    between atoms: _21  and  _23
REMARK   10  A    between atoms: _23  and  _24
REMARK   11  A    between atoms: _23  and  _26
REMARK   12  A    between atoms: _26  and  _27
REMARK   13  A    between atoms: _37  and  _39
REMARK   14  A    between atoms: _39  and  _40
REMARK   15  A    between atoms: _39  and  _42
REMARK   16  A    between atoms: _42  and  _43
REMARK   17  A    between atoms: _45  and  _47
REMARK   18  A    between atoms: _47  and  _48
REMARK   19  A    between atoms: _47  and  _50
REMARK   20  A    between atoms: _50  and  _51
REMARK   21  A    between atoms: _56  and  _57
REMARK   22  A    between atoms: _59  and  _61
REMARK   23  A    between atoms: _61  and  _62
REMARK   24  A    between atoms: _61  and  _64
REMARK   25  A    between atoms: _64  and  _65
REMARK   26  A    between atoms: _70  and  _71
REMARK   27  A    between atoms: _73  and  _75
REMARK   28  A    between atoms: _75  and  _76
REMARK   29  A    between atoms: _75  and  _78
REMARK   30  A    between atoms: _78  and  _79
REMARK   31  A    between atoms: _82  and  _84
REMARK   32  A    between atoms: _84  and  _85
REMARK   33  A    between atoms: _87  and  _89
REMARK   34  A    between atoms: _89  and  _90
REMARK   35  A    between atoms: _89  and  _92
REMARK   36  A    between atoms: _92  and  _93
REMARK   37  A    between atoms: _98  and  _99
REMARK   38  A    between atoms: _101  and  _103
REMARK   39  A    between atoms: _103  and  _104
REMARK   40  A    between atoms: _103  and  _106
REMARK   41  A    between atoms: _106  and  _107
REMARK   42  A    between atoms: _110  and  _112
REMARK   43  A    between atoms: _112  and  _113
REMARK   44  A    between atoms: _112  and  _115
REMARK   45  A    between atoms: _115  and  _116
REMARK   46  A    between atoms: _116  and  _117
REMARK   47  A    between atoms: _117  and  _118
REMARK   48  A    between atoms: _127  and  _129
REMARK   49  A    between atoms: _129  and  _130
REMARK   50  A    between atoms: _129  and  _132
REMARK   51  A    between atoms: _132  and  _133
REMARK   52  A    between atoms: _136  and  _138
REMARK   53  A    between atoms: _138  and  _139
REMARK   54  A    between atoms: _138  and  _141
REMARK   55  A    between atoms: _141  and  _142
REMARK   56  A    between atoms: _145  and  _147
REMARK   57  A    between atoms: _147  and  _148
REMARK   58  A    between atoms: _147  and  _150
REMARK   59  A    between atoms: _150  and  _151
REMARK   60  A    between atoms: _151  and  _152
REMARK   61  A    between atoms: _157  and  _159
REMARK   62  A    between atoms: _159  and  _160
REMARK   63  A    between atoms: _159  and  _162
REMARK   64  A    between atoms: _162  and  _163
REMARK   65  A    between atoms: _168  and  _170
REMARK   66  A    between atoms: _170  and  _171
REMARK   67  A    between atoms: _174  and  _176
REMARK   68  A    between atoms: _176  and  _177
REMARK   69  A    between atoms: _179  and  _181
REMARK   70  A    between atoms: _181  and  _182
REMARK   71  A    between atoms: _181  and  _184
REMARK   72  A    between atoms: _184  and  _185
REMARK   73  A    between atoms: _188  and  _190
REMARK   74  A    between atoms: _190  and  _191
REMARK   75  A    between atoms: _190  and  _193
REMARK   76  A    between atoms: _193  and  _194
REMARK   77  A    between atoms: _194  and  _195
REMARK   78  A    between atoms: _195  and  _196
REMARK   79  A    between atoms: _205  and  _207
REMARK   80  A    between atoms: _207  and  _208
REMARK   81  A    between atoms: _207  and  _210
REMARK   82  A    between atoms: _213  and  _215
REMARK   83  A    between atoms: _215  and  _216
REMARK   84  A    between atoms: _215  and  _218
REMARK   85  A    between atoms: _218  and  _219
REMARK   86  A    between atoms: _224  and  _225
REMARK   87  A    between atoms: _227  and  _229
REMARK   88  A    between atoms: _229  and  _230
REMARK   89  A    between atoms: _229  and  _232
REMARK   90  A    between atoms: _232  and  _233
REMARK   91  A    between atoms: _235  and  _237
REMARK   92  A    between atoms: _237  and  _238
REMARK   93  A    between atoms: _237  and  _240
REMARK   94  A    between atoms: _240  and  _241
REMARK   95  A    between atoms: _246  and  _248
REMARK   96  A    between atoms: _248  and  _249
REMARK   97  A    between atoms: _248  and  _251
REMARK   98  A    between atoms: _251  and  _252
REMARK   99  A    between atoms: _252  and  _253
REMARK  100  A    between atoms: _256  and  _258
REMARK  101  A    between atoms: _258  and  _259
REMARK  102  A    between atoms: _258  and  _261
REMARK  103  A    between atoms: _261  and  _262
REMARK  104  A    between atoms: _267  and  _268
REMARK  105  A    between atoms: _270  and  _272
REMARK  106  A    between atoms: _272  and  _273
REMARK  107  A    between atoms: _276  and  _278
REMARK  108  A    between atoms: _278  and  _279
REMARK  109  A    between atoms: _278  and  _281
REMARK  110  A    between atoms: _281  and  _282
REMARK  111  A    between atoms: _286  and  _287
REMARK  112  A    between atoms: _292  and  _294
REMARK  113  A    between atoms: _294  and  _295
REMARK  114  A    between atoms: _294  and  _297
REMARK  115  A    between atoms: _297  and  _298
REMARK  116  A    between atoms: _301  and  _303
REMARK  117  A    between atoms: _303  and  _304
REMARK  118  A    between atoms: _303  and  _306
REMARK  119  A    between atoms: _306  and  _307
REMARK  120  A    between atoms: _307  and  _308
REMARK  121  A    between atoms: _313  and  _315
REMARK  122  A    between atoms: _315  and  _316
REMARK  123  A    between atoms: _315  and  _318
REMARK  124  A    between atoms: _318  and  _319
REMARK  125  A    between atoms: _322  and  _324
REMARK  126  A    between atoms: _324  and  _325
REMARK  127  A    between atoms: _324  and  _327
REMARK  128  A    between atoms: _327  and  _328
REMARK  129  A    between atoms: _331  and  _333
REMARK  130  A    between atoms: _333  and  _334
REMARK  131  A    between atoms: _333  and  _336
REMARK  132  A    between atoms: _336  and  _337
REMARK  133  A    between atoms: _343  and  _345
REMARK  134  A    between atoms: _345  and  _346
REMARK  135  A    between atoms: _348  and  _350
REMARK  136  A    between atoms: _350  and  _351
REMARK  137  A    between atoms: _350  and  _353
REMARK  138  A    between atoms: _353  and  _354
REMARK  139  A    between atoms: _357  and  _359
REMARK  140  A    between atoms: _359  and  _360
REMARK  141  A    between atoms: _363  and  _365
REMARK  142  A    between atoms: _365  and  _366
REMARK  143  A    between atoms: _365  and  _368
REMARK  144  A    between atoms: _368  and  _369
REMARK  145  A    between atoms: _379  and  _381
REMARK  146  A    between atoms: _381  and  _382
REMARK  147  A    between atoms: _381  and  _384
REMARK  148  A    between atoms: _384  and  _385
REMARK  149  A    between atoms: _387  and  _389
REMARK  150  A    between atoms: _389  and  _390
REMARK  151  A    between atoms: _389  and  _392
REMARK  152  A    between atoms: _392  and  _393
REMARK  153  A    between atoms: _398  and  _399
REMARK  154  A    between atoms: _401  and  _403
REMARK  155  A    between atoms: _403  and  _404
REMARK  156  A    between atoms: _403  and  _406
REMARK  157  A    between atoms: _406  and  _407
REMARK  158  A    between atoms: _412  and  _413
REMARK  159  A    between atoms: _415  and  _417
REMARK  160  A    between atoms: _417  and  _418
REMARK  161  A    between atoms: _417  and  _420
REMARK  162  A    between atoms: _420  and  _421
REMARK  163  A    between atoms: _424  and  _426
REMARK  164  A    between atoms: _426  and  _427
REMARK  165  A    between atoms: _429  and  _431
REMARK  166  A    between atoms: _431  and  _432
REMARK  167  A    between atoms: _431  and  _434
REMARK  168  A    between atoms: _434  and  _435
REMARK  169  A    between atoms: _440  and  _441
REMARK  170  A    between atoms: _443  and  _445
REMARK  171  A    between atoms: _445  and  _446
REMARK  172  A    between atoms: _445  and  _448
REMARK  173  A    between atoms: _448  and  _449
REMARK  174  A    between atoms: _452  and  _454
REMARK  175  A    between atoms: _454  and  _455
REMARK  176  A    between atoms: _454  and  _457
REMARK  177  A    between atoms: _457  and  _458
REMARK  178  A    between atoms: _458  and  _459
REMARK  179  A    between atoms: _459  and  _460
REMARK  180  A    between atoms: _469  and  _471
REMARK  181  A    between atoms: _471  and  _472
REMARK  182  A    between atoms: _471  and  _474
REMARK  183  A    between atoms: _474  and  _475
REMARK  184  A    between atoms: _478  and  _480
REMARK  185  A    between atoms: _480  and  _481
REMARK  186  A    between atoms: _480  and  _483
REMARK  187  A    between atoms: _483  and  _484
REMARK  188  A    between atoms: _487  and  _489
REMARK  189  A    between atoms: _489  and  _490
REMARK  190  A    between atoms: _489  and  _492
REMARK  191  A    between atoms: _492  and  _493
REMARK  192  A    between atoms: _493  and  _494
REMARK  193  A    between atoms: _494  and  _495
REMARK  194  A    between atoms: _504  and  _506
REMARK  195  A    between atoms: _506  and  _507
REMARK  196  A    between atoms: _506  and  _509
REMARK  197  A    between atoms: _509  and  _510
REMARK  198  A    between atoms: _513  and  _515
REMARK  199  A    between atoms: _515  and  _516
REMARK  200  A    between atoms: _515  and  _518
REMARK  201  A    between atoms: _518  and  _519
REMARK  202  A    between atoms: _519  and  _520
REMARK  203  A    between atoms: _520  and  _521
REMARK  204  A    between atoms: _521  and  _522
REMARK  205  A    between atoms: _526  and  _528
REMARK  206  A    between atoms: _528  and  _529
REMARK  207  A    between atoms: _528  and  _531
REMARK  208  A    between atoms: _531  and  _532
REMARK  209  A    between atoms: _532  and  _533
REMARK  210  A    between atoms: _538  and  _540
REMARK  211  A    between atoms: _540  and  _541
REMARK  212  A    between atoms: _540  and  _543
REMARK  213  A    between atoms: _543  and  _544
REMARK  214  A    between atoms: _549  and  _551
REMARK  215  A    between atoms: _551  and  _552
REMARK  216  A    between atoms: _555  and  _557
REMARK  217  A    between atoms: _557  and  _558
REMARK  218  A    between atoms: _557  and  _560
REMARK  219  A    between atoms: _560  and  _561
REMARK  220  A    between atoms: _564  and  _566
REMARK  221  A    between atoms: _566  and  _567
REMARK  222  A    between atoms: _566  and  _569
REMARK  223  A    between atoms: _569  and  _570
REMARK  224  A    between atoms: _570  and  _571
REMARK  225  A    between atoms: _571  and  _572
REMARK  226  A    between atoms: _581  and  _583
REMARK  227  A    between atoms: _583  and  _584
REMARK  228  A    between atoms: _583  and  _586
REMARK  229  A    between atoms: _589  and  _591
REMARK  230  A    between atoms: _591  and  _592
REMARK  231  A    between atoms: _591  and  _594
REMARK  232  A    between atoms: _594  and  _595
REMARK  233  A    between atoms: _600  and  _601
REMARK  234  A    between atoms: _603  and  _605
REMARK  235  A    between atoms: _605  and  _606
REMARK  236  A    between atoms: _605  and  _608
REMARK  237  A    between atoms: _608  and  _609
REMARK  238  A    between atoms: _611  and  _613
REMARK  239  A    between atoms: _613  and  _614
REMARK  240  A    between atoms: _613  and  _616
REMARK  241  A    between atoms: _616  and  _617
REMARK  242  A    between atoms: _622  and  _624
REMARK  243  A    between atoms: _624  and  _625
REMARK  244  A    between atoms: _624  and  _627
REMARK  245  A    between atoms: _627  and  _628
REMARK  246  A    between atoms: _628  and  _629
REMARK  247  A    between atoms: _632  and  _634
REMARK  248  A    between atoms: _634  and  _635
REMARK  249  A    between atoms: _634  and  _637
REMARK  250  A    between atoms: _637  and  _638
REMARK  251  A    between atoms: _643  and  _644
REMARK  252  A    between atoms: _646  and  _648
REMARK  253  A    between atoms: _648  and  _649
REMARK  254  A    between atoms: _652  and  _654
REMARK  255  A    between atoms: _654  and  _655
REMARK  256  A    between atoms: _654  and  _657
REMARK  257  A    between atoms: _657  and  _658
REMARK  258  A    between atoms: _662  and  _663
REMARK  259  A    between atoms: _668  and  _670
REMARK  260  A    between atoms: _670  and  _671
REMARK  261  A    between atoms: _670  and  _673
REMARK  262  A    between atoms: _673  and  _674
REMARK  263  A    between atoms: _677  and  _679
REMARK  264  A    between atoms: _679  and  _680
REMARK  265  A    between atoms: _679  and  _682
REMARK  266  A    between atoms: _682  and  _683
REMARK  267  A    between atoms: _683  and  _684
REMARK  268  A    between atoms: _689  and  _691
REMARK  269  A    between atoms: _691  and  _692
REMARK  270  A    between atoms: _691  and  _694
REMARK  271  A    between atoms: _694  and  _695
REMARK  272  A    between atoms: _698  and  _700
REMARK  273  A    between atoms: _700  and  _701
REMARK  274  A    between atoms: _700  and  _703
REMARK  275  A    between atoms: _703  and  _704
REMARK  276  A    between atoms: _707  and  _709
REMARK  277  A    between atoms: _709  and  _710
REMARK  278  A    between atoms: _709  and  _712
REMARK  279  A    between atoms: _712  and  _713
REMARK                            x       y       z     vdW  Elec       q    Type
REMARK                         _______ _______ _______ _____ _____    ______ ____
ROOT
ATOM      1  CA  LEU A   1     -49.809  18.983  79.745  0.00  0.00    +0.133 C 
ENDROOT
BRANCH   1   2
ATOM      2  N   LEU A   1     -48.459  19.476  80.009  0.00  0.00    -0.239 NA
ATOM      3  H   LEU A   1     -47.679  18.809  80.175  0.00  0.00    +0.142 HD
ENDBRANCH   1   2
BRANCH   1   4
ATOM      4  C   LEU A   1     -50.494  18.823  81.062  0.00  0.00    +0.224 C 
ATOM      5  O   LEU A   1     -50.008  18.118  81.939  0.00  0.00    -0.287 OA
ENDBRANCH   1   4
BRANCH   1   6
ATOM      6  CB  LEU A   1     -49.691  17.649  79.011  0.00  0.00    +0.025 C 
BRANCH   6   7
ATOM      7  CG  LEU A   1     -50.982  16.877  78.851  0.00  0.00    +0.002 C 
ATOM      8  CD2 LEU A   1     -50.666  15.490  78.301  0.00  0.00    +0.000 C 
ATOM      9  CD1 LEU A   1     -51.954  17.615  77.975  0.00  0.00    +0.000 C 
ENDBRANCH   6   7
ENDBRANCH   1   6
TORSDOF 4
REMARK  Name = ../refined-set-2016/4loh/4loh_pocket.pdb
REMARK  279 active torsions:
REMARK  status: ('A' for Active; 'I' for Inactive)
REMARK    1  A    between atoms: _1  and  _3
REMARK    2  A    between atoms: _3  and  _4
REMARK    3  A    between atoms: _6  and  _8
REMARK    4  A    between atoms: _8  and  _9
REMARK    5  A    between atoms: _8  and  _11
REMARK    6  A    between atoms: _11  and  _12
REMARK    7  A    between atoms: _15  and  _17
REMARK    8  A    between atoms: _17  and  _18
REMARK    9  A    between atoms: _21  and  _23
REMARK   10  A    between atoms: _23  and  _24
REMARK   11  A    between atoms: _23  and  _26
REMARK   12  A    between atoms: _26  and  _27
REMARK   13  A    between atoms: _37  and  _39
REMARK   14  A    between atoms: _39  and  _40
REMARK   15  A    between atoms: _39  and  _42
REMARK   16  A    between atoms: _42  and  _43
REMARK   17  A    between atoms: _45  and  _47
REMARK   18  A    between atoms: _47  and  _48
REMARK   19  A    between atoms: _47  and  _50
REMARK   20  A    between atoms: _50  and  _51
REMARK   21  A    between atoms: _56  and  _57
REMARK   22  A    between atoms: _59  and  _61
REMARK   23  A    between atoms: _61  and  _62
REMARK   24  A    between atoms: _61  and  _64
REMARK   25  A    between atoms: _64  and  _65
REMARK   26  A    between atoms: _70  and  _71
REMARK   27  A    between atoms: _73  and  _75
REMARK   28  A    between atoms: _75  and  _76
REMARK   29  A    between atoms: _75  and  _78
REMARK   30  A    between atoms: _78  and  _79
REMARK   31  A    between atoms: _82  and  _84
REMARK   32  A    between atoms: _84  and  _85
REMARK   33  A    between atoms: _87  and  _89
REMARK   34  A    between atoms: _89  and  _90
REMARK   35  A    between atoms: _89  and  _92
REMARK   36  A    between atoms: _92  and  _93
REMARK   37  A    between atoms: _98  and  _99
REMARK   38  A    between atoms: _101  and  _103
REMARK   39  A    between atoms: _103  and  _104
REMARK   40  A    between atoms: _103  and  _106
REMARK   41  A    between atoms: _106  and  _107
REMARK   42  A    between atoms: _110  and  _112
REMARK   43  A    between atoms: _112  and  _113
REMARK   44  A    between atoms: _112  and  _115
REMARK   45  A    between atoms: _115  and  _116
REMARK   46  A    between atoms: _116  and  _117
REMARK   47  A    between atoms: _117  and  _118
REMARK   48  A    between atoms: _127  and  _129
REMARK   49  A    between atoms: _129  and  _130
REMARK   50  A    between atoms: _129  and  _132
REMARK   51  A    between atoms: _132  and  _133
REMARK   52  A    between atoms: _136  and  _138
REMARK   53  A    between atoms: _138  and  _139
REMARK   54  A    between atoms: _138  and  _141
REMARK   55  A    between atoms: _141  and  _142
REMARK   56  A    between atoms: _145  and  _147
REMARK   57  A    between atoms: _147  and  _148
REMARK   58  A    between atoms: _147  and  _150
REMARK   59  A    between atoms: _150  and  _151
REMARK   60  A    between atoms: _151  and  _152
REMARK   61  A    between atoms: _157  and  _159
REMARK   62  A    between atoms: _159  and  _160
REMARK   63  A    between atoms: _159  and  _162
REMARK   64  A    between atoms: _162  and  _163
REMARK   65  A    between atoms: _168  and  _170
REMARK   66  A    between atoms: _170  and  _171
REMARK   67  A    between atoms: _174  and  _176
REMARK   68  A    between atoms: _176  and  _177
REMARK   69  A    between atoms: _179  and  _181
REMARK   70  A    between atoms: _181  and  _182
REMARK   71  A    between atoms: _181  and  _184
REMARK   72  A    between atoms: _184  and  _185
REMARK   73  A    between atoms: _188  and  _190
REMARK   74  A    between atoms: _190  and  _191
REMARK   75  A    between atoms: _190  and  _193
REMARK   76  A    between atoms: _193  and  _194
REMARK   77  A    between atoms: _194  and  _195
REMARK   78  A    between atoms: _195  and  _196
REMARK   79  A    between atoms: _205  and  _207
REMARK   80  A    between atoms: _207  and  _208
REMARK   81  A    between atoms: _207  and  _210
REMARK   82  A    between atoms: _213  and  _215
REMARK   83  A    between atoms: _215  and  _216
REMARK   84  A    between atoms: _215  and  _218
REMARK   85  A    between atoms: _218  and  _219
REMARK   86  A    between atoms: _224  and  _225
REMARK   87  A    between atoms: _227  and  _229
REMARK   88  A    between atoms: _229  and  _230
REMARK   89  A    between atoms: _229  and  _232
REMARK   90  A    between atoms: _232  and  _233
REMARK   91  A    between atoms: _235  and  _237
REMARK   92  A    between atoms: _237  and  _238
REMARK   93  A    between atoms: _237  and  _240
REMARK   94  A    between atoms: _240  and  _241
REMARK   95  A    between atoms: _246  and  _248
REMARK   96  A    between atoms: _248  and  _249
REMARK   97  A    between atoms: _248  and  _251
REMARK   98  A    between atoms: _251  and  _252
REMARK   99  A    between atoms: _252  and  _253
REMARK  100  A    between atoms: _256  and  _258
REMARK  101  A    between atoms: _258  and  _259
REMARK  102  A    between atoms: _258  and  _261
REMARK  103  A    between atoms: _261  and  _262
REMARK  104  A    between atoms: _267  and  _268
REMARK  105  A    between atoms: _270  and  _272
REMARK  106  A    between atoms: _272  and  _273
REMARK  107  A    between atoms: _276  and  _278
REMARK  108  A    between atoms: _278  and  _279
REMARK  109  A    between atoms: _278  and  _281
REMARK  110  A    between atoms: _281  and  _282
REMARK  111  A    between atoms: _286  and  _287
REMARK  112  A    between atoms: _292  and  _294
REMARK  113  A    between atoms: _294  and  _295
REMARK  114  A    between atoms: _294  and  _297
REMARK  115  A    between atoms: _297  and  _298
REMARK  116  A    between atoms: _301  and  _303
REMARK  117  A    between atoms: _303  and  _304
REMARK  118  A    between atoms: _303  and  _306
REMARK  119  A    between atoms: _306  and  _307
REMARK  120  A    between atoms: _307  and  _308
REMARK  121  A    between atoms: _313  and  _315
REMARK  122  A    between atoms: _315  and  _316
REMARK  123  A    between atoms: _315  and  _318
REMARK  124  A    between atoms: _318  and  _319
REMARK  125  A    between atoms: _322  and  _324
REMARK  126  A    between atoms: _324  and  _325
REMARK  127  A    between atoms: _324  and  _327
REMARK  128  A    between atoms: _327  and  _328
REMARK  129  A    between atoms: _331  and  _333
REMARK  130  A    between atoms: _333  and  _334
REMARK  131  A    between atoms: _333  and  _336
REMARK  132  A    between atoms: _336  and  _337
REMARK  133  A    between atoms: _343  and  _345
REMARK  134  A    between atoms: _345  and  _346
REMARK  135  A    between atoms: _348  and  _350
REMARK  136  A    between atoms: _350  and  _351
REMARK  137  A    between atoms: _350  and  _353
REMARK  138  A    between atoms: _353  and  _354
REMARK  139  A    between atoms: _357  and  _359
REMARK  140  A    between atoms: _359  and  _360
REMARK  141  A    between atoms: _363  and  _365
REMARK  142  A    between atoms: _365  and  _366
REMARK  143  A    between atoms: _365  and  _368
REMARK  144  A    between atoms: _368  and  _369
REMARK  145  A    between atoms: _379  and  _381
REMARK  146  A    between atoms: _381  and  _382
REMARK  147  A    between atoms: _381  and  _384
REMARK  148  A    between atoms: _384  and  _385
REMARK  149  A    between atoms: _387  and  _389
REMARK  150  A    between atoms: _389  and  _390
REMARK  151  A    between atoms: _389  and  _392
REMARK  152  A    between atoms: _392  and  _393
REMARK  153  A    between atoms: _398  and  _399
REMARK  154  A    between atoms: _401  and  _403
REMARK  155  A    between atoms: _403  and  _404
REMARK  156  A    between atoms: _403  and  _406
REMARK  157  A    between atoms: _406  and  _407
REMARK  158  A    between atoms: _412  and  _413
REMARK  159  A    between atoms: _415  and  _417
REMARK  160  A    between atoms: _417  and  _418
REMARK  161  A    between atoms: _417  and  _420
REMARK  162  A    between atoms: _420  and  _421
REMARK  163  A    between atoms: _424  and  _426
REMARK  164  A    between atoms: _426  and  _427
REMARK  165  A    between atoms: _429  and  _431
REMARK  166  A    between atoms: _431  and  _432
REMARK  167  A    between atoms: _431  and  _434
REMARK  168  A    between atoms: _434  and  _435
REMARK  169  A    between atoms: _440  and  _441
REMARK  170  A    between atoms: _443  and  _445
REMARK  171  A    between atoms: _445  and  _446
REMARK  172  A    between atoms: _445  and  _448
REMARK  173  A    between atoms: _448  and  _449
REMARK  174  A    between atoms: _452  and  _454
REMARK  175  A    between atoms: _454  and  _455
REMARK  176  A    between atoms: _454  and  _457
REMARK  177  A    between atoms: _457  and  _458
REMARK  178  A    between atoms: _458  and  _459
REMARK  179  A    between atoms: _459  and  _460
REMARK  180  A    between atoms: _469  and  _471
REMARK  181  A    between atoms: _471  and  _472
REMARK  182  A    between atoms: _471  and  _474
REMARK  183  A    between atoms: _474  and  _475
REMARK  184  A    between atoms: _478  and  _480
REMARK  185  A    between atoms: _480  and  _481
REMARK  186  A    between atoms: _480  and  _483
REMARK  187  A    between atoms: _483  and  _484
REMARK  188  A    between atoms: _487  and  _489
REMARK  189  A    between atoms: _489  and  _490
REMARK  190  A    between atoms: _489  and  _492
REMARK  191  A    between atoms: _492  and  _493
REMARK  192  A    between atoms: _493  and  _494
REMARK  193  A    between atoms: _494  and  _495
REMARK  194  A    between atoms: _504  and  _506
REMARK  195  A    between atoms: _506  and  _507
REMARK  196  A    between atoms: _506  and  _509
REMARK  197  A    between atoms: _509  and  _510
REMARK  198  A    between atoms: _513  and  _515
REMARK  199  A    between atoms: _515  and  _516
REMARK  200  A    between atoms: _515  and  _518
REMARK  201  A    between atoms: _518  and  _519
REMARK  202  A    between atoms: _519  and  _520
REMARK  203  A    between atoms: _520  and  _521
REMARK  204  A    between atoms: _521  and  _522
REMARK  205  A    between atoms: _526  and  _528
REMARK  206  A    between atoms: _528  and  _529
REMARK  207  A    between atoms: _528  and  _531
REMARK  208  A    between atoms: _531  and  _532
REMARK  209  A    between atoms: _532  and  _533
REMARK  210  A    between atoms: _538  and  _540
REMARK  211  A    between atoms: _540  and  _541
REMARK  212  A    between atoms: _540  and  _543
REMARK  213  A    between atoms: _543  and  _544
REMARK  214  A    between atoms: _549  and  _551
REMARK  215  A    between atoms: _551  and  _552
REMARK  216  A    between atoms: _555  and  _557
REMARK  217  A    between atoms: _557  and  _558
REMARK  218  A    between atoms: _557  and  _560
REMARK  219  A    between atoms: _560  and  _561
REMARK  220  A    between atoms: _564  and  _566
REMARK  221  A    between atoms: _566  and  _567
REMARK  222  A    between atoms: _566  and  _569
REMARK  223  A    between atoms: _569  and  _570
REMARK  224  A    between atoms: _570  and  _571
REMARK  225  A    between atoms: _571  and  _572
REMARK  226  A    between atoms: _581  and  _583
REMARK  227  A    between atoms: _583  and  _584
REMARK  228  A    between atoms: _583  and  _586
REMARK  229  A    between atoms: _589  and  _591
REMARK  230  A    between atoms: _591  and  _592
REMARK  231  A    between atoms: _591  and  _594
REMARK  232  A    between atoms: _594  and  _595
REMARK  233  A    between atoms: _600  and  _601
REMARK  234  A    between atoms: _603  and  _605
REMARK  235  A    between atoms: _605  and  _606
REMARK  236  A    between atoms: _605  and  _608
REMARK  237  A    between atoms: _608  and  _609
REMARK  238  A    between atoms: _611  and  _613
REMARK  239  A    between atoms: _613  and  _614
REMARK  240  A    between atoms: _613  and  _616
REMARK  241  A    between atoms: _616  and  _617
REMARK  242  A    between atoms: _622  and  _624
REMARK  243  A    between atoms: _624  and  _625
REMARK  244  A    between atoms: _624  and  _627
REMARK  245  A    between atoms: _627  and  _628
REMARK  246  A    between atoms: _628  and  _629
REMARK  247  A    between atoms: _632  and  _634
REMARK  248  A    between atoms: _634  and  _635
REMARK  249  A    between atoms: _634  and  _637
REMARK  250  A    between atoms: _637  and  _638
REMARK  251  A    between atoms: _643  and  _644
REMARK  252  A    between atoms: _646  and  _648
REMARK  253  A    between atoms: _648  and  _649
REMARK  254  A    between atoms: _652  and  _654
REMARK  255  A    between atoms: _654  and  _655
REMARK  256  A    between atoms: _654  and  _657
REMARK  257  A    between atoms: _657  and  _658
REMARK  258  A    between atoms: _662  and  _663
REMARK  259  A    between atoms: _668  and  _670
REMARK  260  A    between atoms: _670  and  _671
REMARK  261  A    between atoms: _670  and  _673
REMARK  262  A    between atoms: _673  and  _674
REMARK  263  A    between atoms: _677  and  _679
REMARK  264  A    between atoms: _679  and  _680
REMARK  265  A    between atoms: _679  and  _682
REMARK  266  A    between atoms: _682  and  _683
REMARK  267  A    between atoms: _683  and  _684
REMARK  268  A    between atoms: _689  and  _691
REMARK  269  A    between atoms: _691  and  _692
REMARK  270  A    between atoms: _691  and  _694
REMARK  271  A    between atoms: _694  and  _695
REMARK  272  A    between atoms: _698  and  _700
REMARK  273  A    between atoms: _700  and  _701
REMARK  274  A    between atoms: _700  and  _703
REMARK  275  A    between atoms: _703  and  _704
REMARK  276  A    between atoms: _707  and  _709
REMARK  277  A    between atoms: _709  and  _710
REMARK  278  A    between atoms: _709  and  _712
REMARK  279  A    between atoms: _712  and  _713
REMARK                            x       y       z     vdW  Elec       q    Type
REMARK                         _______ _______ _______ _____ _____    ______ ____
ROOT
ATOM      1  CG  LYS A   1     -57.511  22.266  67.642  0.00  0.00    -0.000 C 
ENDROOT
BRANCH   1   2
ATOM      2  CB  LYS A   1     -56.036  22.646  67.867  0.00  0.00    +0.025 C 
BRANCH   2   3
ATOM      3  CA  LYS A   1     -55.670  23.476  69.091  0.00  0.00    +0.133 C 
BRANCH   3   4
ATOM      4  N   LYS A   1     -56.354  24.713  69.085  0.00  0.00    -0.239 NA
ATOM      5  H   LYS A   1     -56.461  25.224  68.186  0.00  0.00    +0.142 HD
ENDBRANCH   3   4
BRANCH   3   6
ATOM      6  C   LYS A   1     -54.235  23.824  68.978  0.00  0.00    +0.224 C 
ATOM      7  O   LYS A   1     -53.847  24.780  68.296  0.00  0.00    -0.287 OA
ENDBRANCH   3   6
ENDBRANCH   2   3
ENDBRANCH   1   2
BRANCH   1   8
ATOM      8  CD  LYS A   1     -58.042  21.402  68.765  0.00  0.00    -0.024 C 
BRANCH   8   9
ATOM      9  CE  LYS A   1     -57.336  20.031  68.829  0.00  0.00    -0.086 C 
BRANCH   9  10
ATOM     10  NZ  LYS A   1     -57.549  19.220  70.072  0.00  0.00    +0.380 N 
ATOM     11  HZ1 LYS A   1     -57.205  19.754  70.896  0.00  0.00    -0.089 HD
ATOM     12  HZ2 LYS A   1     -58.564  19.021  70.185  0.00  0.00    -0.089 HD
ATOM     13  HZ3 LYS A   1     -57.025  18.325  69.994  0.00  0.00    -0.089 HD
ENDBRANCH   9  10
ENDBRANCH   8   9
ENDBRANCH   1   8
TORSDOF 7
REMARK  Name = ../refined-set-2016/4loh/4loh_pocket.pdb
REMARK  279 active torsions:
REMARK  status: ('A' for Active; 'I' for Inactive)
REMARK    1  A    between atoms: _1  and  _3
REMARK    2  A    between atoms: _3  and  _4
REMARK    3  A    between atoms: _6  and  _8
REMARK    4  A    between atoms: _8  and  _9
REMARK    5  A    between atoms: _8  and  _11
REMARK    6  A    between atoms: _11  and  _12
REMARK    7  A    between atoms: _15  and  _17
REMARK    8  A    between atoms: _17  and  _18
REMARK    9  A    between atoms: _21  and  _23
REMARK   10  A    between atoms: _23  and  _24
REMARK   11  A    between atoms: _23  and  _26
REMARK   12  A    between atoms: _26  and  _27
REMARK   13  A    between atoms: _37  and  _39
REMARK   14  A    between atoms: _39  and  _40
REMARK   15  A    between atoms: _39  and  _42
REMARK   16  A    between atoms: _42  and  _43
REMARK   17  A    between atoms: _45  and  _47
REMARK   18  A    between atoms: _47  and  _48
REMARK   19  A    between atoms: _47  and  _50
REMARK   20  A    between atoms: _50  and  _51
REMARK   21  A    between atoms: _56  and  _57
REMARK   22  A    between atoms: _59  and  _61
REMARK   23  A    between atoms: _61  and  _62
REMARK   24  A    between atoms: _61  and  _64
REMARK   25  A    between atoms: _64  and  _65
REMARK   26  A    between atoms: _70  and  _71
REMARK   27  A    between atoms: _73  and  _75
REMARK   28  A    between atoms: _75  and  _76
REMARK   29  A    between atoms: _75  and  _78
REMARK   30  A    between atoms: _78  and  _79
REMARK   31  A    between atoms: _82  and  _84
REMARK   32  A    between atoms: _84  and  _85
REMARK   33  A    between atoms: _87  and  _89
REMARK   34  A    between atoms: _89  and  _90
REMARK   35  A    between atoms: _89  and  _92
REMARK   36  A    between atoms: _92  and  _93
REMARK   37  A    between atoms: _98  and  _99
REMARK   38  A    between atoms: _101  and  _103
REMARK   39  A    between atoms: _103  and  _104
REMARK   40  A    between atoms: _103  and  _106
REMARK   41  A    between atoms: _106  and  _107
REMARK   42  A    between atoms: _110  and  _112
REMARK   43  A    between atoms: _112  and  _113
REMARK   44  A    between atoms: _112  and  _115
REMARK   45  A    between atoms: _115  and  _116
REMARK   46  A    between atoms: _116  and  _117
REMARK   47  A    between atoms: _117  and  _118
REMARK   48  A    between atoms: _127  and  _129
REMARK   49  A    between atoms: _129  and  _130
REMARK   50  A    between atoms: _129  and  _132
REMARK   51  A    between atoms: _132  and  _133
REMARK   52  A    between atoms: _136  and  _138
REMARK   53  A    between atoms: _138  and  _139
REMARK   54  A    between atoms: _138  and  _141
REMARK   55  A    between atoms: _141  and  _142
REMARK   56  A    between atoms: _145  and  _147
REMARK   57  A    between atoms: _147  and  _148
REMARK   58  A    between atoms: _147  and  _150
REMARK   59  A    between atoms: _150  and  _151
REMARK   60  A    between atoms: _151  and  _152
REMARK   61  A    between atoms: _157  and  _159
REMARK   62  A    between atoms: _159  and  _160
REMARK   63  A    between atoms: _159  and  _162
REMARK   64  A    between atoms: _162  and  _163
REMARK   65  A    between atoms: _168  and  _170
REMARK   66  A    between atoms: _170  and  _171
REMARK   67  A    between atoms: _174  and  _176
REMARK   68  A    between atoms: _176  and  _177
REMARK   69  A    between atoms: _179  and  _181
REMARK   70  A    between atoms: _181  and  _182
REMARK   71  A    between atoms: _181  and  _184
REMARK   72  A    between atoms: _184  and  _185
REMARK   73  A    between atoms: _188  and  _190
REMARK   74  A    between atoms: _190  and  _191
REMARK   75  A    between atoms: _190  and  _193
REMARK   76  A    between atoms: _193  and  _194
REMARK   77  A    between atoms: _194  and  _195
REMARK   78  A    between atoms: _195  and  _196
REMARK   79  A    between atoms: _205  and  _207
REMARK   80  A    between atoms: _207  and  _208
REMARK   81  A    between atoms: _207  and  _210
REMARK   82  A    between atoms: _213  and  _215
REMARK   83  A    between atoms: _215  and  _216
REMARK   84  A    between atoms: _215  and  _218
REMARK   85  A    between atoms: _218  and  _219
REMARK   86  A    between atoms: _224  and  _225
REMARK   87  A    between atoms: _227  and  _229
REMARK   88  A    between atoms: _229  and  _230
REMARK   89  A    between atoms: _229  and  _232
REMARK   90  A    between atoms: _232  and  _233
REMARK   91  A    between atoms: _235  and  _237
REMARK   92  A    between atoms: _237  and  _238
REMARK   93  A    between atoms: _237  and  _240
REMARK   94  A    between atoms: _240  and  _241
REMARK   95  A    between atoms: _246  and  _248
REMARK   96  A    between atoms: _248  and  _249
REMARK   97  A    between atoms: _248  and  _251
REMARK   98  A    between atoms: _251  and  _252
REMARK   99  A    between atoms: _252  and  _253
REMARK  100  A    between atoms: _256  and  _258
REMARK  101  A    between atoms: _258  and  _259
REMARK  102  A    between atoms: _258  and  _261
REMARK  103  A    between atoms: _261  and  _262
REMARK  104  A    between atoms: _267  and  _268
REMARK  105  A    between atoms: _270  and  _272
REMARK  106  A    between atoms: _272  and  _273
REMARK  107  A    between atoms: _276  and  _278
REMARK  108  A    between atoms: _278  and  _279
REMARK  109  A    between atoms: _278  and  _281
REMARK  110  A    between atoms: _281  and  _282
REMARK  111  A    between atoms: _286  and  _287
REMARK  112  A    between atoms: _292  and  _294
REMARK  113  A    between atoms: _294  and  _295
REMARK  114  A    between atoms: _294  and  _297
REMARK  115  A    between atoms: _297  and  _298
REMARK  116  A    between atoms: _301  and  _303
REMARK  117  A    between atoms: _303  and  _304
REMARK  118  A    between atoms: _303  and  _306
REMARK  119  A    between atoms: _306  and  _307
REMARK  120  A    between atoms: _307  and  _308
REMARK  121  A    between atoms: _313  and  _315
REMARK  122  A    between atoms: _315  and  _316
REMARK  123  A    between atoms: _315  and  _318
REMARK  124  A    between atoms: _318  and  _319
REMARK  125  A    between atoms: _322  and  _324
REMARK  126  A    between atoms: _324  and  _325
REMARK  127  A    between atoms: _324  and  _327
REMARK  128  A    between atoms: _327  and  _328
REMARK  129  A    between atoms: _331  and  _333
REMARK  130  A    between atoms: _333  and  _334
REMARK  131  A    between atoms: _333  and  _336
REMARK  132  A    between atoms: _336  and  _337
REMARK  133  A    between atoms: _343  and  _345
REMARK  134  A    between atoms: _345  and  _346
REMARK  135  A    between atoms: _348  and  _350
REMARK  136  A    between atoms: _350  and  _351
REMARK  137  A    between atoms: _350  and  _353
REMARK  138  A    between atoms: _353  and  _354
REMARK  139  A    between atoms: _357  and  _359
REMARK  140  A    between atoms: _359  and  _360
REMARK  141  A    between atoms: _363  and  _365
REMARK  142  A    between atoms: _365  and  _366
REMARK  143  A    between atoms: _365  and  _368
REMARK  144  A    between atoms: _368  and  _369
REMARK  145  A    between atoms: _379  and  _381
REMARK  146  A    between atoms: _381  and  _382
REMARK  147  A    between atoms: _381  and  _384
REMARK  148  A    between atoms: _384  and  _385
REMARK  149  A    between atoms: _387  and  _389
REMARK  150  A    between atoms: _389  and  _390
REMARK  151  A    between atoms: _389  and  _392
REMARK  152  A    between atoms: _392  and  _393
REMARK  153  A    between atoms: _398  and  _399
REMARK  154  A    between atoms: _401  and  _403
REMARK  155  A    between atoms: _403  and  _404
REMARK  156  A    between atoms: _403  and  _406
REMARK  157  A    between atoms: _406  and  _407
REMARK  158  A    between atoms: _412  and  _413
REMARK  159  A    between atoms: _415  and  _417
REMARK  160  A    between atoms: _417  and  _418
REMARK  161  A    between atoms: _417  and  _420
REMARK  162  A    between atoms: _420  and  _421
REMARK  163  A    between atoms: _424  and  _426
REMARK  164  A    between atoms: _426  and  _427
REMARK  165  A    between atoms: _429  and  _431
REMARK  166  A    between atoms: _431  and  _432
REMARK  167  A    between atoms: _431  and  _434
REMARK  168  A    between atoms: _434  and  _435
REMARK  169  A    between atoms: _440  and  _441
REMARK  170  A    between atoms: _443  and  _445
REMARK  171  A    between atoms: _445  and  _446
REMARK  172  A    between atoms: _445  and  _448
REMARK  173  A    between atoms: _448  and  _449
REMARK  174  A    between atoms: _452  and  _454
REMARK  175  A    between atoms: _454  and  _455
REMARK  176  A    between atoms: _454  and  _457
REMARK  177  A    between atoms: _457  and  _458
REMARK  178  A    between atoms: _458  and  _459
REMARK  179  A    between atoms: _459  and  _460
REMARK  180  A    between atoms: _469  and  _471
REMARK  181  A    between atoms: _471  and  _472
REMARK  182  A    between atoms: _471  and  _474
REMARK  183  A    between atoms: _474  and  _475
REMARK  184  A    between atoms: _478  and  _480
REMARK  185  A    between atoms: _480  and  _481
REMARK  186  A    between atoms: _480  and  _483
REMARK  187  A    between atoms: _483  and  _484
REMARK  188  A    between atoms: _487  and  _489
REMARK  189  A    between atoms: _489  and  _490
REMARK  190  A    between atoms: _489  and  _492
REMARK  191  A    between atoms: _492  and  _493
REMARK  192  A    between atoms: _493  and  _494
REMARK  193  A    between atoms: _494  and  _495
REMARK  194  A    between atoms: _504  and  _506
REMARK  195  A    between atoms: _506  and  _507
REMARK  196  A    between atoms: _506  and  _509
REMARK  197  A    between atoms: _509  and  _510
REMARK  198  A    between atoms: _513  and  _515
REMARK  199  A    between atoms: _515  and  _516
REMARK  200  A    between atoms: _515  and  _518
REMARK  201  A    between atoms: _518  and  _519
REMARK  202  A    between atoms: _519  and  _520
REMARK  203  A    between atoms: _520  and  _521
REMARK  204  A    between atoms: _521  and  _522
REMARK  205  A    between atoms: _526  and  _528
REMARK  206  A    between atoms: _528  and  _529
REMARK  207  A    between atoms: _528  and  _531
REMARK  208  A    between atoms: _531  and  _532
REMARK  209  A    between atoms: _532  and  _533
REMARK  210  A    between atoms: _538  and  _540
REMARK  211  A    between atoms: _540  and  _541
REMARK  212  A    between atoms: _540  and  _543
REMARK  213  A    between atoms: _543  and  _544
REMARK  214  A    between atoms: _549  and  _551
REMARK  215  A    between atoms: _551  and  _552
REMARK  216  A    between atoms: _555  and  _557
REMARK  217  A    between atoms: _557  and  _558
REMARK  218  A    between atoms: _557  and  _560
REMARK  219  A    between atoms: _560  and  _561
REMARK  220  A    between atoms: _564  and  _566
REMARK  221  A    between atoms: _566  and  _567
REMARK  222  A    between atoms: _566  and  _569
REMARK  223  A    between atoms: _569  and  _570
REMARK  224  A    between atoms: _570  and  _571
REMARK  225  A    between atoms: _571  and  _572
REMARK  226  A    between atoms: _581  and  _583
REMARK  227  A    between atoms: _583  and  _584
REMARK  228  A    between atoms: _583  and  _586
REMARK  229  A    between atoms: _589  and  _591
REMARK  230  A    between atoms: _591  and  _592
REMARK  231  A    between atoms: _591  and  _594
REMARK  232  A    between atoms: _594  and  _595
REMARK  233  A    between atoms: _600  and  _601
REMARK  234  A    between atoms: _603  and  _605
REMARK  235  A    between atoms: _605  and  _606
REMARK  236  A    between atoms: _605  and  _608
REMARK  237  A    between atoms: _608  and  _609
REMARK  238  A    between atoms: _611  and  _613
REMARK  239  A    between atoms: _613  and  _614
REMARK  240  A    between atoms: _613  and  _616
REMARK  241  A    between atoms: _616  and  _617
REMARK  242  A    between atoms: _622  and  _624
REMARK  243  A    between atoms: _624  and  _625
REMARK  244  A    between atoms: _624  and  _627
REMARK  245  A    between atoms: _627  and  _628
REMARK  246  A    between atoms: _628  and  _629
REMARK  247  A    between atoms: _632  and  _634
REMARK  248  A    between atoms: _634  and  _635
REMARK  249  A    between atoms: _634  and  _637
REMARK  250  A    between atoms: _637  and  _638
REMARK  251  A    between atoms: _643  and  _644
REMARK  252  A    between atoms: _646  and  _648
REMARK  253  A    between atoms: _648  and  _649
REMARK  254  A    between atoms: _652  and  _654
REMARK  255  A    between atoms: _654  and  _655
REMARK  256  A    between atoms: _654  and  _657
REMARK  257  A    between atoms: _657  and  _658
REMARK  258  A    between atoms: _662  and  _663
REMARK  259  A    between atoms: _668  and  _670
REMARK  260  A    between atoms: _670  and  _671
REMARK  261  A    between atoms: _670  and  _673
REMARK  262  A    between atoms: _673  and  _674
REMARK  263  A    between atoms: _677  and  _679
REMARK  264  A    between atoms: _679  and  _680
REMARK  265  A    between atoms: _679  and  _682
REMARK  266  A    between atoms: _682  and  _683
REMARK  267  A    between atoms: _683  and  _684
REMARK  268  A    between atoms: _689  and  _691
REMARK  269  A    between atoms: _691  and  _692
REMARK  270  A    between atoms: _691  and  _694
REMARK  271  A    between atoms: _694  and  _695
REMARK  272  A    between atoms: _698  and  _700
REMARK  273  A    between atoms: _700  and  _701
REMARK  274  A    between atoms: _700  and  _703
REMARK  275  A    between atoms: _703  and  _704
REMARK  276  A    between atoms: _707  and  _709
REMARK  277  A    between atoms: _709  and  _710
REMARK  278  A    between atoms: _709  and  _712
REMARK  279  A    between atoms: _712  and  _713
REMARK                            x       y       z     vdW  Elec       q    Type
REMARK                         _______ _______ _______ _____ _____    ______ ____
ROOT
ATOM      1  CB  GLN A   1     -47.941  15.355  67.285  0.00  0.00    +0.035 C 
ENDROOT
BRANCH   1   2
ATOM      2  CA  GLN A   1     -48.417  15.700  65.885  0.00  0.00    +0.134 C 
BRANCH   2   3
ATOM      3  N   GLN A   1     -49.598  16.534  65.957  0.00  0.00    -0.239 NA
ATOM      4  H   GLN A   1     -50.406  16.225  66.534  0.00  0.00    +0.142 HD
ENDBRANCH   2   3
BRANCH   2   5
ATOM      5  C   GLN A   1     -48.820  14.419  65.178  0.00  0.00    +0.224 C 
ATOM      6  O   GLN A   1     -49.864  13.844  65.507  0.00  0.00    -0.287 OA
ENDBRANCH   2   5
ENDBRANCH   1   2
BRANCH   1   7
ATOM      7  CG  GLN A   1     -46.790  14.377  67.295  0.00  0.00    +0.087 C 
BRANCH   7   8
ATOM      8  CD  GLN A   1     -46.159  14.184  68.666  0.00  0.00    +0.219 C 
ATOM      9  OE1 GLN A   1     -46.070  15.105  69.465  0.00  0.00    -0.275 OA
ATOM     10  NE2 GLN A   1     -45.640  12.975  68.912  0.00  0.00    -0.329 N 
ATOM     11 HE21 GLN A   1     -45.141  12.795  69.807  0.00  0.00    +0.145 HD
ATOM     12 HE22 GLN A   1     -45.735  12.215  68.208  0.00  0.00    +0.145 HD
ENDBRANCH   7   8
ENDBRANCH   1   7
TORSDOF 5
REMARK  Name = ../refined-set-2016/4loh/4loh_pocket.pdb
REMARK  279 active torsions:
REMARK  status: ('A' for Active; 'I' for Inactive)
REMARK    1  A    between atoms: _1  and  _3
REMARK    2  A    between atoms: _3  and  _4
REMARK    3  A    between atoms: _6  and  _8
REMARK    4  A    between atoms: _8  and  _9
REMARK    5  A    between atoms: _8  and  _11
REMARK    6  A    between atoms: _11  and  _12
REMARK    7  A    between atoms: _15  and  _17
REMARK    8  A    between atoms: _17  and  _18
REMARK    9  A    between atoms: _21  and  _23
REMARK   10  A    between atoms: _23  and  _24
REMARK   11  A    between atoms: _23  and  _26
REMARK   12  A    between atoms: _26  and  _27
REMARK   13  A    between atoms: _37  and  _39
REMARK   14  A    between atoms: _39  and  _40
REMARK   15  A    between atoms: _39  and  _42
REMARK   16  A    between atoms: _42  and  _43
REMARK   17  A    between atoms: _45  and  _47
REMARK   18  A    between atoms: _47  and  _48
REMARK   19  A    between atoms: _47  and  _50
REMARK   20  A    between atoms: _50  and  _51
REMARK   21  A    between atoms: _56  and  _57
REMARK   22  A    between atoms: _59  and  _61
REMARK   23  A    between atoms: _61  and  _62
REMARK   24  A    between atoms: _61  and  _64
REMARK   25  A    between atoms: _64  and  _65
REMARK   26  A    between atoms: _70  and  _71
REMARK   27  A    between atoms: _73  and  _75
REMARK   28  A    between atoms: _75  and  _76
REMARK   29  A    between atoms: _75  and  _78
REMARK   30  A    between atoms: _78  and  _79
REMARK   31  A    between atoms: _82  and  _84
REMARK   32  A    between atoms: _84  and  _85
REMARK   33  A    between atoms: _87  and  _89
REMARK   34  A    between atoms: _89  and  _90
REMARK   35  A    between atoms: _89  and  _92
REMARK   36  A    between atoms: _92  and  _93
REMARK   37  A    between atoms: _98  and  _99
REMARK   38  A    between atoms: _101  and  _103
REMARK   39  A    between atoms: _103  and  _104
REMARK   40  A    between atoms: _103  and  _106
REMARK   41  A    between atoms: _106  and  _107
REMARK   42  A    between atoms: _110  and  _112
REMARK   43  A    between atoms: _112  and  _113
REMARK   44  A    between atoms: _112  and  _115
REMARK   45  A    between atoms: _115  and  _116
REMARK   46  A    between atoms: _116  and  _117
REMARK   47  A    between atoms: _117  and  _118
REMARK   48  A    between atoms: _127  and  _129
REMARK   49  A    between atoms: _129  and  _130
REMARK   50  A    between atoms: _129  and  _132
REMARK   51  A    between atoms: _132  and  _133
REMARK   52  A    between atoms: _136  and  _138
REMARK   53  A    between atoms: _138  and  _139
REMARK   54  A    between atoms: _138  and  _141
REMARK   55  A    between atoms: _141  and  _142
REMARK   56  A    between atoms: _145  and  _147
REMARK   57  A    between atoms: _147  and  _148
REMARK   58  A    between atoms: _147  and  _150
REMARK   59  A    between atoms: _150  and  _151
REMARK   60  A    between atoms: _151  and  _152
REMARK   61  A    between atoms: _157  and  _159
REMARK   62  A    between atoms: _159  and  _160
REMARK   63  A    between atoms: _159  and  _162
REMARK   64  A    between atoms: _162  and  _163
REMARK   65  A    between atoms: _168  and  _170
REMARK   66  A    between atoms: _170  and  _171
REMARK   67  A    between atoms: _174  and  _176
REMARK   68  A    between atoms: _176  and  _177
REMARK   69  A    between atoms: _179  and  _181
REMARK   70  A    between atoms: _181  and  _182
REMARK   71  A    between atoms: _181  and  _184
REMARK   72  A    between atoms: _184  and  _185
REMARK   73  A    between atoms: _188  and  _190
REMARK   74  A    between atoms: _190  and  _191
REMARK   75  A    between atoms: _190  and  _193
REMARK   76  A    between atoms: _193  and  _194
REMARK   77  A    between atoms: _194  and  _195
REMARK   78  A    between atoms: _195  and  _196
REMARK   79  A    between atoms: _205  and  _207
REMARK   80  A    between atoms: _207  and  _208
REMARK   81  A    between atoms: _207  and  _210
REMARK   82  A    between atoms: _213  and  _215
REMARK   83  A    between atoms: _215  and  _216
REMARK   84  A    between atoms: _215  and  _218
REMARK   85  A    between atoms: _218  and  _219
REMARK   86  A    between atoms: _224  and  _225
REMARK   87  A    between atoms: _227  and  _229
REMARK   88  A    between atoms: _229  and  _230
REMARK   89  A    between atoms: _229  and  _232
REMARK   90  A    between atoms: _232  and  _233
REMARK   91  A    between atoms: _235  and  _237
REMARK   92  A    between atoms: _237  and  _238
REMARK   93  A    between atoms: _237  and  _240
REMARK   94  A    between atoms: _240  and  _241
REMARK   95  A    between atoms: _246  and  _248
REMARK   96  A    between atoms: _248  and  _249
REMARK   97  A    between atoms: _248  and  _251
REMARK   98  A    between atoms: _251  and  _252
REMARK   99  A    between atoms: _252  and  _253
REMARK  100  A    between atoms: _256  and  _258
REMARK  101  A    between atoms: _258  and  _259
REMARK  102  A    between atoms: _258  and  _261
REMARK  103  A    between atoms: _261  and  _262
REMARK  104  A    between atoms: _267  and  _268
REMARK  105  A    between atoms: _270  and  _272
REMARK  106  A    between atoms: _272  and  _273
REMARK  107  A    between atoms: _276  and  _278
REMARK  108  A    between atoms: _278  and  _279
REMARK  109  A    between atoms: _278  and  _281
REMARK  110  A    between atoms: _281  and  _282
REMARK  111  A    between atoms: _286  and  _287
REMARK  112  A    between atoms: _292  and  _294
REMARK  113  A    between atoms: _294  and  _295
REMARK  114  A    between atoms: _294  and  _297
REMARK  115  A    between atoms: _297  and  _298
REMARK  116  A    between atoms: _301  and  _303
REMARK  117  A    between atoms: _303  and  _304
REMARK  118  A    between atoms: _303  and  _306
REMARK  119  A    between atoms: _306  and  _307
REMARK  120  A    between atoms: _307  and  _308
REMARK  121  A    between atoms: _313  and  _315
REMARK  122  A    between atoms: _315  and  _316
REMARK  123  A    between atoms: _315  and  _318
REMARK  124  A    between atoms: _318  and  _319
REMARK  125  A    between atoms: _322  and  _324
REMARK  126  A    between atoms: _324  and  _325
REMARK  127  A    between atoms: _324  and  _327
REMARK  128  A    between atoms: _327  and  _328
REMARK  129  A    between atoms: _331  and  _333
REMARK  130  A    between atoms: _333  and  _334
REMARK  131  A    between atoms: _333  and  _336
REMARK  132  A    between atoms: _336  and  _337
REMARK  133  A    between atoms: _343  and  _345
REMARK  134  A    between atoms: _345  and  _346
REMARK  135  A    between atoms: _348  and  _350
REMARK  136  A    between atoms: _350  and  _351
REMARK  137  A    between atoms: _350  and  _353
REMARK  138  A    between atoms: _353  and  _354
REMARK  139  A    between atoms: _357  and  _359
REMARK  140  A    between atoms: _359  and  _360
REMARK  141  A    between atoms: _363  and  _365
REMARK  142  A    between atoms: _365  and  _366
REMARK  143  A    between atoms: _365  and  _368
REMARK  144  A    between atoms: _368  and  _369
REMARK  145  A    between atoms: _379  and  _381
REMARK  146  A    between atoms: _381  and  _382
REMARK  147  A    between atoms: _381  and  _384
REMARK  148  A    between atoms: _384  and  _385
REMARK  149  A    between atoms: _387  and  _389
REMARK  150  A    between atoms: _389  and  _390
REMARK  151  A    between atoms: _389  and  _392
REMARK  152  A    between atoms: _392  and  _393
REMARK  153  A    between atoms: _398  and  _399
REMARK  154  A    between atoms: _401  and  _403
REMARK  155  A    between atoms: _403  and  _404
REMARK  156  A    between atoms: _403  and  _406
REMARK  157  A    between atoms: _406  and  _407
REMARK  158  A    between atoms: _412  and  _413
REMARK  159  A    between atoms: _415  and  _417
REMARK  160  A    between atoms: _417  and  _418
REMARK  161  A    between atoms: _417  and  _420
REMARK  162  A    between atoms: _420  and  _421
REMARK  163  A    between atoms: _424  and  _426
REMARK  164  A    between atoms: _426  and  _427
REMARK  165  A    between atoms: _429  and  _431
REMARK  166  A    between atoms: _431  and  _432
REMARK  167  A    between atoms: _431  and  _434
REMARK  168  A    between atoms: _434  and  _435
REMARK  169  A    between atoms: _440  and  _441
REMARK  170  A    between atoms: _443  and  _445
REMARK  171  A    between atoms: _445  and  _446
REMARK  172  A    between atoms: _445  and  _448
REMARK  173  A    between atoms: _448  and  _449
REMARK  174  A    between atoms: _452  and  _454
REMARK  175  A    between atoms: _454  and  _455
REMARK  176  A    between atoms: _454  and  _457
REMARK  177  A    between atoms: _457  and  _458
REMARK  178  A    between atoms: _458  and  _459
REMARK  179  A    between atoms: _459  and  _460
REMARK  180  A    between atoms: _469  and  _471
REMARK  181  A    between atoms: _471  and  _472
REMARK  182  A    between atoms: _471  and  _474
REMARK  183  A    between atoms: _474  and  _475
REMARK  184  A    between atoms: _478  and  _480
REMARK  185  A    between atoms: _480  and  _481
REMARK  186  A    between atoms: _480  and  _483
REMARK  187  A    between atoms: _483  and  _484
REMARK  188  A    between atoms: _487  and  _489
REMARK  189  A    between atoms: _489  and  _490
REMARK  190  A    between atoms: _489  and  _492
REMARK  191  A    between atoms: _492  and  _493
REMARK  192  A    between atoms: _493  and  _494
REMARK  193  A    between atoms: _494  and  _495
REMARK  194  A    between atoms: _504  and  _506
REMARK  195  A    between atoms: _506  and  _507
REMARK  196  A    between atoms: _506  and  _509
REMARK  197  A    between atoms: _509  and  _510
REMARK  198  A    between atoms: _513  and  _515
REMARK  199  A    between atoms: _515  and  _516
REMARK  200  A    between atoms: _515  and  _518
REMARK  201  A    between atoms: _518  and  _519
REMARK  202  A    between atoms: _519  and  _520
REMARK  203  A    between atoms: _520  and  _521
REMARK  204  A    between atoms: _521  and  _522
REMARK  205  A    between atoms: _526  and  _528
REMARK  206  A    between atoms: _528  and  _529
REMARK  207  A    between atoms: _528  and  _531
REMARK  208  A    between atoms: _531  and  _532
REMARK  209  A    between atoms: _532  and  _533
REMARK  210  A    between atoms: _538  and  _540
REMARK  211  A    between atoms: _540  and  _541
REMARK  212  A    between atoms: _540  and  _543
REMARK  213  A    between atoms: _543  and  _544
REMARK  214  A    between atoms: _549  and  _551
REMARK  215  A    between atoms: _551  and  _552
REMARK  216  A    between atoms: _555  and  _557
REMARK  217  A    between atoms: _557  and  _558
REMARK  218  A    between atoms: _557  and  _560
REMARK  219  A    between atoms: _560  and  _561
REMARK  220  A    between atoms: _564  and  _566
REMARK  221  A    between atoms: _566  and  _567
REMARK  222  A    between atoms: _566  and  _569
REMARK  223  A    between atoms: _569  and  _570
REMARK  224  A    between atoms: _570  and  _571
REMARK  225  A    between atoms: _571  and  _572
REMARK  226  A    between atoms: _581  and  _583
REMARK  227  A    between atoms: _583  and  _584
REMARK  228  A    between atoms: _583  and  _586
REMARK  229  A    between atoms: _589  and  _591
REMARK  230  A    between atoms: _591  and  _592
REMARK  231  A    between atoms: _591  and  _594
REMARK  232  A    between atoms: _594  and  _595
REMARK  233  A    between atoms: _600  and  _601
REMARK  234  A    between atoms: _603  and  _605
REMARK  235  A    between atoms: _605  and  _606
REMARK  236  A    between atoms: _605  and  _608
REMARK  237  A    between atoms: _608  and  _609
REMARK  238  A    between atoms: _611  and  _613
REMARK  239  A    between atoms: _613  and  _614
REMARK  240  A    between atoms: _613  and  _616
REMARK  241  A    between atoms: _616  and  _617
REMARK  242  A    between atoms: _622  and  _624
REMARK  243  A    between atoms: _624  and  _625
REMARK  244  A    between atoms: _624  and  _627
REMARK  245  A    between atoms: _627  and  _628
REMARK  246  A    between atoms: _628  and  _629
REMARK  247  A    between atoms: _632  and  _634
REMARK  248  A    between atoms: _634  and  _635
REMARK  249  A    between atoms: _634  and  _637
REMARK  250  A    between atoms: _637  and  _638
REMARK  251  A    between atoms: _643  and  _644
REMARK  252  A    between atoms: _646  and  _648
REMARK  253  A    between atoms: _648  and  _649
REMARK  254  A    between atoms: _652  and  _654
REMARK  255  A    between atoms: _654  and  _655
REMARK  256  A    between atoms: _654  and  _657
REMARK  257  A    between atoms: _657  and  _658
REMARK  258  A    between atoms: _662  and  _663
REMARK  259  A    between atoms: _668  and  _670
REMARK  260  A    between atoms: _670  and  _671
REMARK  261  A    between atoms: _670  and  _673
REMARK  262  A    between atoms: _673  and  _674
REMARK  263  A    between atoms: _677  and  _679
REMARK  264  A    between atoms: _679  and  _680
REMARK  265  A    between atoms: _679  and  _682
REMARK  266  A    between atoms: _682  and  _683
REMARK  267  A    between atoms: _683  and  _684
REMARK  268  A    between atoms: _689  and  _691
REMARK  269  A    between atoms: _691  and  _692
REMARK  270  A    between atoms: _691  and  _694
REMARK  271  A    between atoms: _694  and  _695
REMARK  272  A    between atoms: _698  and  _700
REMARK  273  A    between atoms: _700  and  _701
REMARK  274  A    between atoms: _700  and  _703
REMARK  275  A    between atoms: _703  and  _704
REMARK  276  A    between atoms: _707  and  _709
REMARK  277  A    between atoms: _709  and  _710
REMARK  278  A    between atoms: _709  and  _712
REMARK  279  A    between atoms: _712  and  _713
REMARK                            x       y       z     vdW  Elec       q    Type
REMARK                         _______ _______ _______ _____ _____    ______ ____
ROOT
ATOM      1  CA  HIS A   1     -48.101   3.446  64.688  0.00  0.00    +0.151 C 
ENDROOT
BRANCH   1   2
ATOM      2  C   HIS A   1     -48.947   2.287  64.308  0.00  0.00    +0.239 C 
ATOM      3  N   ALA A   2     -48.465   1.081  64.535  0.00  0.00    -0.298 N 
ATOM      4  H   ALA A   2     -47.498   1.003  64.909  0.00  0.00    +0.150 HD
ATOM      5  O   HIS A   1     -49.985   2.481  63.801  0.00  0.00    -0.274 OA
BRANCH   3   6
ATOM      6  CA  ALA A   2     -49.209  -0.153  64.293  0.00  0.00    +0.137 C 
ATOM      7  CB  ALA A   2     -50.271  -0.292  65.346  0.00  0.00    +0.030 C 
BRANCH   6   8
ATOM      8  C   ALA A   2     -49.842  -0.349  62.895  0.00  0.00    +0.227 C 
ATOM      9  O   ALA A   2     -50.927  -0.908  62.765  0.00  0.00    -0.286 OA
ENDBRANCH   6   8
ENDBRANCH   3   6
ENDBRANCH   1   2
BRANCH   1  10
ATOM     10  N   HIS A   1     -48.004   4.305  63.517  0.00  0.00    -0.238 NA
ATOM     11  H   HIS A   1     -48.810   4.361  62.862  0.00  0.00    +0.142 HD
ENDBRANCH   1  10
BRANCH   1  12
ATOM     12  CB  HIS A   1     -48.734   4.182  65.867  0.00  0.00    +0.074 C 
BRANCH  12  13
ATOM     13  CG  HIS A   1     -47.926   5.316  66.394  0.00  0.00    +0.082 A 
ATOM     14  CD2 HIS A   1     -47.272   5.469  67.560  0.00  0.00    +0.115 A 
ATOM     15  NE2 HIS A   1     -46.696   6.716  67.545  0.00  0.00    -0.221 NA
ATOM     16  CE1 HIS A   1     -46.979   7.307  66.410  0.00  0.00    +0.199 A 
ATOM     17  ND1 HIS A   1     -47.735   6.493  65.705  0.00  0.00    -0.227 NA
ENDBRANCH  12  13
ENDBRANCH   1  12
TORSDOF 6
REMARK  Name = ../refined-set-2016/4loh/4loh_pocket.pdb
REMARK  279 active torsions:
REMARK  status: ('A' for Active; 'I' for Inactive)
REMARK    1  A    between atoms: _1  and  _3
REMARK    2  A    between atoms: _3  and  _4
REMARK    3  A    between atoms: _6  and  _8
REMARK    4  A    between atoms: _8  and  _9
REMARK    5  A    between atoms: _8  and  _11
REMARK    6  A    between atoms: _11  and  _12
REMARK    7  A    between atoms: _15  and  _17
REMARK    8  A    between atoms: _17  and  _18
REMARK    9  A    between atoms: _21  and  _23
REMARK   10  A    between atoms: _23  and  _24
REMARK   11  A    between atoms: _23  and  _26
REMARK   12  A    between atoms: _26  and  _27
REMARK   13  A    between atoms: _37  and  _39
REMARK   14  A    between atoms: _39  and  _40
REMARK   15  A    between atoms: _39  and  _42
REMARK   16  A    between atoms: _42  and  _43
REMARK   17  A    between atoms: _45  and  _47
REMARK   18  A    between atoms: _47  and  _48
REMARK   19  A    between atoms: _47  and  _50
REMARK   20  A    between atoms: _50  and  _51
REMARK   21  A    between atoms: _56  and  _57
REMARK   22  A    between atoms: _59  and  _61
REMARK   23  A    between atoms: _61  and  _62
REMARK   24  A    between atoms: _61  and  _64
REMARK   25  A    between atoms: _64  and  _65
REMARK   26  A    between atoms: _70  and  _71
REMARK   27  A    between atoms: _73  and  _75
REMARK   28  A    between atoms: _75  and  _76
REMARK   29  A    between atoms: _75  and  _78
REMARK   30  A    between atoms: _78  and  _79
REMARK   31  A    between atoms: _82  and  _84
REMARK   32  A    between atoms: _84  and  _85
REMARK   33  A    between atoms: _87  and  _89
REMARK   34  A    between atoms: _89  and  _90
REMARK   35  A    between atoms: _89  and  _92
REMARK   36  A    between atoms: _92  and  _93
REMARK   37  A    between atoms: _98  and  _99
REMARK   38  A    between atoms: _101  and  _103
REMARK   39  A    between atoms: _103  and  _104
REMARK   40  A    between atoms: _103  and  _106
REMARK   41  A    between atoms: _106  and  _107
REMARK   42  A    between atoms: _110  and  _112
REMARK   43  A    between atoms: _112  and  _113
REMARK   44  A    between atoms: _112  and  _115
REMARK   45  A    between atoms: _115  and  _116
REMARK   46  A    between atoms: _116  and  _117
REMARK   47  A    between atoms: _117  and  _118
REMARK   48  A    between atoms: _127  and  _129
REMARK   49  A    between atoms: _129  and  _130
REMARK   50  A    between atoms: _129  and  _132
REMARK   51  A    between atoms: _132  and  _133
REMARK   52  A    between atoms: _136  and  _138
REMARK   53  A    between atoms: _138  and  _139
REMARK   54  A    between atoms: _138  and  _141
REMARK   55  A    between atoms: _141  and  _142
REMARK   56  A    between atoms: _145  and  _147
REMARK   57  A    between atoms: _147  and  _148
REMARK   58  A    between atoms: _147  and  _150
REMARK   59  A    between atoms: _150  and  _151
REMARK   60  A    between atoms: _151  and  _152
REMARK   61  A    between atoms: _157  and  _159
REMARK   62  A    between atoms: _159  and  _160
REMARK   63  A    between atoms: _159  and  _162
REMARK   64  A    between atoms: _162  and  _163
REMARK   65  A    between atoms: _168  and  _170
REMARK   66  A    between atoms: _170  and  _171
REMARK   67  A    between atoms: _174  and  _176
REMARK   68  A    between atoms: _176  and  _177
REMARK   69  A    between atoms: _179  and  _181
REMARK   70  A    between atoms: _181  and  _182
REMARK   71  A    between atoms: _181  and  _184
REMARK   72  A    between atoms: _184  and  _185
REMARK   73  A    between atoms: _188  and  _190
REMARK   74  A    between atoms: _190  and  _191
REMARK   75  A    between atoms: _190  and  _193
REMARK   76  A    between atoms: _193  and  _194
REMARK   77  A    between atoms: _194  and  _195
REMARK   78  A    between atoms: _195  and  _196
REMARK   79  A    between atoms: _205  and  _207
REMARK   80  A    between atoms: _207  and  _208
REMARK   81  A    between atoms: _207  and  _210
REMARK   82  A    between atoms: _213  and  _215
REMARK   83  A    between atoms: _215  and  _216
REMARK   84  A    between atoms: _215  and  _218
REMARK   85  A    between atoms: _218  and  _219
REMARK   86  A    between atoms: _224  and  _225
REMARK   87  A    between atoms: _227  and  _229
REMARK   88  A    between atoms: _229  and  _230
REMARK   89  A    between atoms: _229  and  _232
REMARK   90  A    between atoms: _232  and  _233
REMARK   91  A    between atoms: _235  and  _237
REMARK   92  A    between atoms: _237  and  _238
REMARK   93  A    between atoms: _237  and  _240
REMARK   94  A    between atoms: _240  and  _241
REMARK   95  A    between atoms: _246  and  _248
REMARK   96  A    between atoms: _248  and  _249
REMARK   97  A    between atoms: _248  and  _251
REMARK   98  A    between atoms: _251  and  _252
REMARK   99  A    between atoms: _252  and  _253
REMARK  100  A    between atoms: _256  and  _258
REMARK  101  A    between atoms: _258  and  _259
REMARK  102  A    between atoms: _258  and  _261
REMARK  103  A    between atoms: _261  and  _262
REMARK  104  A    between atoms: _267  and  _268
REMARK  105  A    between atoms: _270  and  _272
REMARK  106  A    between atoms: _272  and  _273
REMARK  107  A    between atoms: _276  and  _278
REMARK  108  A    between atoms: _278  and  _279
REMARK  109  A    between atoms: _278  and  _281
REMARK  110  A    between atoms: _281  and  _282
REMARK  111  A    between atoms: _286  and  _287
REMARK  112  A    between atoms: _292  and  _294
REMARK  113  A    between atoms: _294  and  _295
REMARK  114  A    between atoms: _294  and  _297
REMARK  115  A    between atoms: _297  and  _298
REMARK  116  A    between atoms: _301  and  _303
REMARK  117  A    between atoms: _303  and  _304
REMARK  118  A    between atoms: _303  and  _306
REMARK  119  A    between atoms: _306  and  _307
REMARK  120  A    between atoms: _307  and  _308
REMARK  121  A    between atoms: _313  and  _315
REMARK  122  A    between atoms: _315  and  _316
REMARK  123  A    between atoms: _315  and  _318
REMARK  124  A    between atoms: _318  and  _319
REMARK  125  A    between atoms: _322  and  _324
REMARK  126  A    between atoms: _324  and  _325
REMARK  127  A    between atoms: _324  and  _327
REMARK  128  A    between atoms: _327  and  _328
REMARK  129  A    between atoms: _331  and  _333
REMARK  130  A    between atoms: _333  and  _334
REMARK  131  A    between atoms: _333  and  _336
REMARK  132  A    between atoms: _336  and  _337
REMARK  133  A    between atoms: _343  and  _345
REMARK  134  A    between atoms: _345  and  _346
REMARK  135  A    between atoms: _348  and  _350
REMARK  136  A    between atoms: _350  and  _351
REMARK  137  A    between atoms: _350  and  _353
REMARK  138  A    between atoms: _353  and  _354
REMARK  139  A    between atoms: _357  and  _359
REMARK  140  A    between atoms: _359  and  _360
REMARK  141  A    between atoms: _363  and  _365
REMARK  142  A    between atoms: _365  and  _366
REMARK  143  A    between atoms: _365  and  _368
REMARK  144  A    between atoms: _368  and  _369
REMARK  145  A    between atoms: _379  and  _381
REMARK  146  A    between atoms: _381  and  _382
REMARK  147  A    between atoms: _381  and  _384
REMARK  148  A    between atoms: _384  and  _385
REMARK  149  A    between atoms: _387  and  _389
REMARK  150  A    between atoms: _389  and  _390
REMARK  151  A    between atoms: _389  and  _392
REMARK  152  A    between atoms: _392  and  _393
REMARK  153  A    between atoms: _398  and  _399
REMARK  154  A    between atoms: _401  and  _403
REMARK  155  A    between atoms: _403  and  _404
REMARK  156  A    between atoms: _403  and  _406
REMARK  157  A    between atoms: _406  and  _407
REMARK  158  A    between atoms: _412  and  _413
REMARK  159  A    between atoms: _415  and  _417
REMARK  160  A    between atoms: _417  and  _418
REMARK  161  A    between atoms: _417  and  _420
REMARK  162  A    between atoms: _420  and  _421
REMARK  163  A    between atoms: _424  and  _426
REMARK  164  A    between atoms: _426  and  _427
REMARK  165  A    between atoms: _429  and  _431
REMARK  166  A    between atoms: _431  and  _432
REMARK  167  A    between atoms: _431  and  _434
REMARK  168  A    between atoms: _434  and  _435
REMARK  169  A    between atoms: _440  and  _441
REMARK  170  A    between atoms: _443  and  _445
REMARK  171  A    between atoms: _445  and  _446
REMARK  172  A    between atoms: _445  and  _448
REMARK  173  A    between atoms: _448  and  _449
REMARK  174  A    between atoms: _452  and  _454
REMARK  175  A    between atoms: _454  and  _455
REMARK  176  A    between atoms: _454  and  _457
REMARK  177  A    between atoms: _457  and  _458
REMARK  178  A    between atoms: _458  and  _459
REMARK  179  A    between atoms: _459  and  _460
REMARK  180  A    between atoms: _469  and  _471
REMARK  181  A    between atoms: _471  and  _472
REMARK  182  A    between atoms: _471  and  _474
REMARK  183  A    between atoms: _474  and  _475
REMARK  184  A    between atoms: _478  and  _480
REMARK  185  A    between atoms: _480  and  _481
REMARK  186  A    between atoms: _480  and  _483
REMARK  187  A    between atoms: _483  and  _484
REMARK  188  A    between atoms: _487  and  _489
REMARK  189  A    between atoms: _489  and  _490
REMARK  190  A    between atoms: _489  and  _492
REMARK  191  A    between atoms: _492  and  _493
REMARK  192  A    between atoms: _493  and  _494
REMARK  193  A    between atoms: _494  and  _495
REMARK  194  A    between atoms: _504  and  _506
REMARK  195  A    between atoms: _506  and  _507
REMARK  196  A    between atoms: _506  and  _509
REMARK  197  A    between atoms: _509  and  _510
REMARK  198  A    between atoms: _513  and  _515
REMARK  199  A    between atoms: _515  and  _516
REMARK  200  A    between atoms: _515  and  _518
REMARK  201  A    between atoms: _518  and  _519
REMARK  202  A    between atoms: _519  and  _520
REMARK  203  A    between atoms: _520  and  _521
REMARK  204  A    between atoms: _521  and  _522
REMARK  205  A    between atoms: _526  and  _528
REMARK  206  A    between atoms: _528  and  _529
REMARK  207  A    between atoms: _528  and  _531
REMARK  208  A    between atoms: _531  and  _532
REMARK  209  A    between atoms: _532  and  _533
REMARK  210  A    between atoms: _538  and  _540
REMARK  211  A    between atoms: _540  and  _541
REMARK  212  A    between atoms: _540  and  _543
REMARK  213  A    between atoms: _543  and  _544
REMARK  214  A    between atoms: _549  and  _551
REMARK  215  A    between atoms: _551  and  _552
REMARK  216  A    between atoms: _555  and  _557
REMARK  217  A    between atoms: _557  and  _558
REMARK  218  A    between atoms: _557  and  _560
REMARK  219  A    between atoms: _560  and  _561
REMARK  220  A    between atoms: _564  and  _566
REMARK  221  A    between atoms: _566  and  _567
REMARK  222  A    between atoms: _566  and  _569
REMARK  223  A    between atoms: _569  and  _570
REMARK  224  A    between atoms: _570  and  _571
REMARK  225  A    between atoms: _571  and  _572
REMARK  226  A    between atoms: _581  and  _583
REMARK  227  A    between atoms: _583  and  _584
REMARK  228  A    between atoms: _583  and  _586
REMARK  229  A    between atoms: _589  and  _591
REMARK  230  A    between atoms: _591  and  _592
REMARK  231  A    between atoms: _591  and  _594
REMARK  232  A    between atoms: _594  and  _595
REMARK  233  A    between atoms: _600  and  _601
REMARK  234  A    between atoms: _603  and  _605
REMARK  235  A    between atoms: _605  and  _606
REMARK  236  A    between atoms: _605  and  _608
REMARK  237  A    between atoms: _608  and  _609
REMARK  238  A    between atoms: _611  and  _613
REMARK  239  A    between atoms: _613  and  _614
REMARK  240  A    between atoms: _613  and  _616
REMARK  241  A    between atoms: _616  and  _617
REMARK  242  A    between atoms: _622  and  _624
REMARK  243  A    between atoms: _624  and  _625
REMARK  244  A    between atoms: _624  and  _627
REMARK  245  A    between atoms: _627  and  _628
REMARK  246  A    between atoms: _628  and  _629
REMARK  247  A    between atoms: _632  and  _634
REMARK  248  A    between atoms: _634  and  _635
REMARK  249  A    between atoms: _634  and  _637
REMARK  250  A    between atoms: _637  and  _638
REMARK  251  A    between atoms: _643  and  _644
REMARK  252  A    between atoms: _646  and  _648
REMARK  253  A    between atoms: _648  and  _649
REMARK  254  A    between atoms: _652  and  _654
REMARK  255  A    between atoms: _654  and  _655
REMARK  256  A    between atoms: _654  and  _657
REMARK  257  A    between atoms: _657  and  _658
REMARK  258  A    between atoms: _662  and  _663
REMARK  259  A    between atoms: _668  and  _670
REMARK  260  A    between atoms: _670  and  _671
REMARK  261  A    between atoms: _670  and  _673
REMARK  262  A    between atoms: _673  and  _674
REMARK  263  A    between atoms: _677  and  _679
REMARK  264  A    between atoms: _679  and  _680
REMARK  265  A    between atoms: _679  and  _682
REMARK  266  A    between atoms: _682  and  _683
REMARK  267  A    between atoms: _683  and  _684
REMARK  268  A    between atoms: _689  and  _691
REMARK  269  A    between atoms: _691  and  _692
REMARK  270  A    between atoms: _691  and  _694
REMARK  271  A    between atoms: _694  and  _695
REMARK  272  A    between atoms: _698  and  _700
REMARK  273  A    between atoms: _700  and  _701
REMARK  274  A    between atoms: _700  and  _703
REMARK  275  A    between atoms: _703  and  _704
REMARK  276  A    between atoms: _707  and  _709
REMARK  277  A    between atoms: _709  and  _710
REMARK  278  A    between atoms: _709  and  _712
REMARK  279  A    between atoms: _712  and  _713
REMARK                            x       y       z     vdW  Elec       q    Type
REMARK                         _______ _______ _______ _____ _____    ______ ____
ROOT
ATOM      1  CA  ILE A   1     -51.577   3.230  60.548  0.00  0.00    +0.133 C 
ENDROOT
BRANCH   1   2
ATOM      2  N   ILE A   1     -50.764   2.075  60.940  0.00  0.00    -0.239 NA
ATOM      3  H   ILE A   1     -50.309   2.051  61.875  0.00  0.00    +0.142 HD
ENDBRANCH   1   2
BRANCH   1   4
ATOM      4  CB  ILE A   1     -52.585   3.666  61.625  0.00  0.00    +0.023 C 
ATOM      5  CG2 ILE A   1     -53.211   5.026  61.264  0.00  0.00    +0.002 C 
BRANCH   4   6
ATOM      6  CG1 ILE A   1     -53.650   2.565  61.795  0.00  0.00    +0.002 C 
ATOM      7  CD1 ILE A   1     -54.642   2.819  62.887  0.00  0.00    +0.000 C 
ENDBRANCH   4   6
ENDBRANCH   1   4
BRANCH   1   8
ATOM      8  C   ILE A   1     -50.627   4.354  60.177  0.00  0.00    +0.224 C 
ATOM      9  O   ILE A   1     -49.741   4.759  60.954  0.00  0.00    -0.287 OA
ENDBRANCH   1   8
TORSDOF 4
REMARK  Name = ../refined-set-2016/4loh/4loh_pocket.pdb
REMARK  279 active torsions:
REMARK  status: ('A' for Active; 'I' for Inactive)
REMARK    1  A    between atoms: _1  and  _3
REMARK    2  A    between atoms: _3  and  _4
REMARK    3  A    between atoms: _6  and  _8
REMARK    4  A    between atoms: _8  and  _9
REMARK    5  A    between atoms: _8  and  _11
REMARK    6  A    between atoms: _11  and  _12
REMARK    7  A    between atoms: _15  and  _17
REMARK    8  A    between atoms: _17  and  _18
REMARK    9  A    between atoms: _21  and  _23
REMARK   10  A    between atoms: _23  and  _24
REMARK   11  A    between atoms: _23  and  _26
REMARK   12  A    between atoms: _26  and  _27
REMARK   13  A    between atoms: _37  and  _39
REMARK   14  A    between atoms: _39  and  _40
REMARK   15  A    between atoms: _39  and  _42
REMARK   16  A    between atoms: _42  and  _43
REMARK   17  A    between atoms: _45  and  _47
REMARK   18  A    between atoms: _47  and  _48
REMARK   19  A    between atoms: _47  and  _50
REMARK   20  A    between atoms: _50  and  _51
REMARK   21  A    between atoms: _56  and  _57
REMARK   22  A    between atoms: _59  and  _61
REMARK   23  A    between atoms: _61  and  _62
REMARK   24  A    between atoms: _61  and  _64
REMARK   25  A    between atoms: _64  and  _65
REMARK   26  A    between atoms: _70  and  _71
REMARK   27  A    between atoms: _73  and  _75
REMARK   28  A    between atoms: _75  and  _76
REMARK   29  A    between atoms: _75  and  _78
REMARK   30  A    between atoms: _78  and  _79
REMARK   31  A    between atoms: _82  and  _84
REMARK   32  A    between atoms: _84  and  _85
REMARK   33  A    between atoms: _87  and  _89
REMARK   34  A    between atoms: _89  and  _90
REMARK   35  A    between atoms: _89  and  _92
REMARK   36  A    between atoms: _92  and  _93
REMARK   37  A    between atoms: _98  and  _99
REMARK   38  A    between atoms: _101  and  _103
REMARK   39  A    between atoms: _103  and  _104
REMARK   40  A    between atoms: _103  and  _106
REMARK   41  A    between atoms: _106  and  _107
REMARK   42  A    between atoms: _110  and  _112
REMARK   43  A    between atoms: _112  and  _113
REMARK   44  A    between atoms: _112  and  _115
REMARK   45  A    between atoms: _115  and  _116
REMARK   46  A    between atoms: _116  and  _117
REMARK   47  A    between atoms: _117  and  _118
REMARK   48  A    between atoms: _127  and  _129
REMARK   49  A    between atoms: _129  and  _130
REMARK   50  A    between atoms: _129  and  _132
REMARK   51  A    between atoms: _132  and  _133
REMARK   52  A    between atoms: _136  and  _138
REMARK   53  A    between atoms: _138  and  _139
REMARK   54  A    between atoms: _138  and  _141
REMARK   55  A    between atoms: _141  and  _142
REMARK   56  A    between atoms: _145  and  _147
REMARK   57  A    between atoms: _147  and  _148
REMARK   58  A    between atoms: _147  and  _150
REMARK   59  A    between atoms: _150  and  _151
REMARK   60  A    between atoms: _151  and  _152
REMARK   61  A    between atoms: _157  and  _159
REMARK   62  A    between atoms: _159  and  _160
REMARK   63  A    between atoms: _159  and  _162
REMARK   64  A    between atoms: _162  and  _163
REMARK   65  A    between atoms: _168  and  _170
REMARK   66  A    between atoms: _170  and  _171
REMARK   67  A    between atoms: _174  and  _176
REMARK   68  A    between atoms: _176  and  _177
REMARK   69  A    between atoms: _179  and  _181
REMARK   70  A    between atoms: _181  and  _182
REMARK   71  A    between atoms: _181  and  _184
REMARK   72  A    between atoms: _184  and  _185
REMARK   73  A    between atoms: _188  and  _190
REMARK   74  A    between atoms: _190  and  _191
REMARK   75  A    between atoms: _190  and  _193
REMARK   76  A    between atoms: _193  and  _194
REMARK   77  A    between atoms: _194  and  _195
REMARK   78  A    between atoms: _195  and  _196
REMARK   79  A    between atoms: _205  and  _207
REMARK   80  A    between atoms: _207  and  _208
REMARK   81  A    between atoms: _207  and  _210
REMARK   82  A    between atoms: _213  and  _215
REMARK   83  A    between atoms: _215  and  _216
REMARK   84  A    between atoms: _215  and  _218
REMARK   85  A    between atoms: _218  and  _219
REMARK   86  A    between atoms: _224  and  _225
REMARK   87  A    between atoms: _227  and  _229
REMARK   88  A    between atoms: _229  and  _230
REMARK   89  A    between atoms: _229  and  _232
REMARK   90  A    between atoms: _232  and  _233
REMARK   91  A    between atoms: _235  and  _237
REMARK   92  A    between atoms: _237  and  _238
REMARK   93  A    between atoms: _237  and  _240
REMARK   94  A    between atoms: _240  and  _241
REMARK   95  A    between atoms: _246  and  _248
REMARK   96  A    between atoms: _248  and  _249
REMARK   97  A    between atoms: _248  and  _251
REMARK   98  A    between atoms: _251  and  _252
REMARK   99  A    between atoms: _252  and  _253
REMARK  100  A    between atoms: _256  and  _258
REMARK  101  A    between atoms: _258  and  _259
REMARK  102  A    between atoms: _258  and  _261
REMARK  103  A    between atoms: _261  and  _262
REMARK  104  A    between atoms: _267  and  _268
REMARK  105  A    between atoms: _270  and  _272
REMARK  106  A    between atoms: _272  and  _273
REMARK  107  A    between atoms: _276  and  _278
REMARK  108  A    between atoms: _278  and  _279
REMARK  109  A    between atoms: _278  and  _281
REMARK  110  A    between atoms: _281  and  _282
REMARK  111  A    between atoms: _286  and  _287
REMARK  112  A    between atoms: _292  and  _294
REMARK  113  A    between atoms: _294  and  _295
REMARK  114  A    between atoms: _294  and  _297
REMARK  115  A    between atoms: _297  and  _298
REMARK  116  A    between atoms: _301  and  _303
REMARK  117  A    between atoms: _303  and  _304
REMARK  118  A    between atoms: _303  and  _306
REMARK  119  A    between atoms: _306  and  _307
REMARK  120  A    between atoms: _307  and  _308
REMARK  121  A    between atoms: _313  and  _315
REMARK  122  A    between atoms: _315  and  _316
REMARK  123  A    between atoms: _315  and  _318
REMARK  124  A    between atoms: _318  and  _319
REMARK  125  A    between atoms: _322  and  _324
REMARK  126  A    between atoms: _324  and  _325
REMARK  127  A    between atoms: _324  and  _327
REMARK  128  A    between atoms: _327  and  _328
REMARK  129  A    between atoms: _331  and  _333
REMARK  130  A    between atoms: _333  and  _334
REMARK  131  A    between atoms: _333  and  _336
REMARK  132  A    between atoms: _336  and  _337
REMARK  133  A    between atoms: _343  and  _345
REMARK  134  A    between atoms: _345  and  _346
REMARK  135  A    between atoms: _348  and  _350
REMARK  136  A    between atoms: _350  and  _351
REMARK  137  A    between atoms: _350  and  _353
REMARK  138  A    between atoms: _353  and  _354
REMARK  139  A    between atoms: _357  and  _359
REMARK  140  A    between atoms: _359  and  _360
REMARK  141  A    between atoms: _363  and  _365
REMARK  142  A    between atoms: _365  and  _366
REMARK  143  A    between atoms: _365  and  _368
REMARK  144  A    between atoms: _368  and  _369
REMARK  145  A    between atoms: _379  and  _381
REMARK  146  A    between atoms: _381  and  _382
REMARK  147  A    between atoms: _381  and  _384
REMARK  148  A    between atoms: _384  and  _385
REMARK  149  A    between atoms: _387  and  _389
REMARK  150  A    between atoms: _389  and  _390
REMARK  151  A    between atoms: _389  and  _392
REMARK  152  A    between atoms: _392  and  _393
REMARK  153  A    between atoms: _398  and  _399
REMARK  154  A    between atoms: _401  and  _403
REMARK  155  A    between atoms: _403  and  _404
REMARK  156  A    between atoms: _403  and  _406
REMARK  157  A    between atoms: _406  and  _407
REMARK  158  A    between atoms: _412  and  _413
REMARK  159  A    between atoms: _415  and  _417
REMARK  160  A    between atoms: _417  and  _418
REMARK  161  A    between atoms: _417  and  _420
REMARK  162  A    between atoms: _420  and  _421
REMARK  163  A    between atoms: _424  and  _426
REMARK  164  A    between atoms: _426  and  _427
REMARK  165  A    between atoms: _429  and  _431
REMARK  166  A    between atoms: _431  and  _432
REMARK  167  A    between atoms: _431  and  _434
REMARK  168  A    between atoms: _434  and  _435
REMARK  169  A    between atoms: _440  and  _441
REMARK  170  A    between atoms: _443  and  _445
REMARK  171  A    between atoms: _445  and  _446
REMARK  172  A    between atoms: _445  and  _448
REMARK  173  A    between atoms: _448  and  _449
REMARK  174  A    between atoms: _452  and  _454
REMARK  175  A    between atoms: _454  and  _455
REMARK  176  A    between atoms: _454  and  _457
REMARK  177  A    between atoms: _457  and  _458
REMARK  178  A    between atoms: _458  and  _459
REMARK  179  A    between atoms: _459  and  _460
REMARK  180  A    between atoms: _469  and  _471
REMARK  181  A    between atoms: _471  and  _472
REMARK  182  A    between atoms: _471  and  _474
REMARK  183  A    between atoms: _474  and  _475
REMARK  184  A    between atoms: _478  and  _480
REMARK  185  A    between atoms: _480  and  _481
REMARK  186  A    between atoms: _480  and  _483
REMARK  187  A    between atoms: _483  and  _484
REMARK  188  A    between atoms: _487  and  _489
REMARK  189  A    between atoms: _489  and  _490
REMARK  190  A    between atoms: _489  and  _492
REMARK  191  A    between atoms: _492  and  _493
REMARK  192  A    between atoms: _493  and  _494
REMARK  193  A    between atoms: _494  and  _495
REMARK  194  A    between atoms: _504  and  _506
REMARK  195  A    between atoms: _506  and  _507
REMARK  196  A    between atoms: _506  and  _509
REMARK  197  A    between atoms: _509  and  _510
REMARK  198  A    between atoms: _513  and  _515
REMARK  199  A    between atoms: _515  and  _516
REMARK  200  A    between atoms: _515  and  _518
REMARK  201  A    between atoms: _518  and  _519
REMARK  202  A    between atoms: _519  and  _520
REMARK  203  A    between atoms: _520  and  _521
REMARK  204  A    between atoms: _521  and  _522
REMARK  205  A    between atoms: _526  and  _528
REMARK  206  A    between atoms: _528  and  _529
REMARK  207  A    between atoms: _528  and  _531
REMARK  208  A    between atoms: _531  and  _532
REMARK  209  A    between atoms: _532  and  _533
REMARK  210  A    between atoms: _538  and  _540
REMARK  211  A    between atoms: _540  and  _541
REMARK  212  A    between atoms: _540  and  _543
REMARK  213  A    between atoms: _543  and  _544
REMARK  214  A    between atoms: _549  and  _551
REMARK  215  A    between atoms: _551  and  _552
REMARK  216  A    between atoms: _555  and  _557
REMARK  217  A    between atoms: _557  and  _558
REMARK  218  A    between atoms: _557  and  _560
REMARK  219  A    between atoms: _560  and  _561
REMARK  220  A    between atoms: _564  and  _566
REMARK  221  A    between atoms: _566  and  _567
REMARK  222  A    between atoms: _566  and  _569
REMARK  223  A    between atoms: _569  and  _570
REMARK  224  A    between atoms: _570  and  _571
REMARK  225  A    between atoms: _571  and  _572
REMARK  226  A    between atoms: _581  and  _583
REMARK  227  A    between atoms: _583  and  _584
REMARK  228  A    between atoms: _583  and  _586
REMARK  229  A    between atoms: _589  and  _591
REMARK  230  A    between atoms: _591  and  _592
REMARK  231  A    between atoms: _591  and  _594
REMARK  232  A    between atoms: _594  and  _595
REMARK  233  A    between atoms: _600  and  _601
REMARK  234  A    between atoms: _603  and  _605
REMARK  235  A    between atoms: _605  and  _606
REMARK  236  A    between atoms: _605  and  _608
REMARK  237  A    between atoms: _608  and  _609
REMARK  238  A    between atoms: _611  and  _613
REMARK  239  A    between atoms: _613  and  _614
REMARK  240  A    between atoms: _613  and  _616
REMARK  241  A    between atoms: _616  and  _617
REMARK  242  A    between atoms: _622  and  _624
REMARK  243  A    between atoms: _624  and  _625
REMARK  244  A    between atoms: _624  and  _627
REMARK  245  A    between atoms: _627  and  _628
REMARK  246  A    between atoms: _628  and  _629
REMARK  247  A    between atoms: _632  and  _634
REMARK  248  A    between atoms: _634  and  _635
REMARK  249  A    between atoms: _634  and  _637
REMARK  250  A    between atoms: _637  and  _638
REMARK  251  A    between atoms: _643  and  _644
REMARK  252  A    between atoms: _646  and  _648
REMARK  253  A    between atoms: _648  and  _649
REMARK  254  A    between atoms: _652  and  _654
REMARK  255  A    between atoms: _654  and  _655
REMARK  256  A    between atoms: _654  and  _657
REMARK  257  A    between atoms: _657  and  _658
REMARK  258  A    between atoms: _662  and  _663
REMARK  259  A    between atoms: _668  and  _670
REMARK  260  A    between atoms: _670  and  _671
REMARK  261  A    between atoms: _670  and  _673
REMARK  262  A    between atoms: _673  and  _674
REMARK  263  A    between atoms: _677  and  _679
REMARK  264  A    between atoms: _679  and  _680
REMARK  265  A    between atoms: _679  and  _682
REMARK  266  A    between atoms: _682  and  _683
REMARK  267  A    between atoms: _683  and  _684
REMARK  268  A    between atoms: _689  and  _691
REMARK  269  A    between atoms: _691  and  _692
REMARK  270  A    between atoms: _691  and  _694
REMARK  271  A    between atoms: _694  and  _695
REMARK  272  A    between atoms: _698  and  _700
REMARK  273  A    between atoms: _700  and  _701
REMARK  274  A    between atoms: _700  and  _703
REMARK  275  A    between atoms: _703  and  _704
REMARK  276  A    between atoms: _707  and  _709
REMARK  277  A    between atoms: _709  and  _710
REMARK  278  A    between atoms: _709  and  _712
REMARK  279  A    between atoms: _712  and  _713
REMARK                            x       y       z     vdW  Elec       q    Type
REMARK                         _______ _______ _______ _____ _____    ______ ____
ROOT
ATOM      1  CA  TYR A   3     -52.304  13.166  68.174  0.00  0.00    +0.153 C 
ENDROOT
BRANCH   1   2
ATOM      2  C   TYR A   3     -52.513  14.679  68.233  0.00  0.00    +0.241 C 
ATOM      3  N   SER A   4     -53.655  15.076  68.741  0.00  0.00    -0.295 N 
ATOM      4  H   SER A   4     -54.348  14.367  69.055  0.00  0.00    +0.150 HD
ATOM      5  O   TYR A   3     -51.690  15.456  67.770  0.00  0.00    -0.273 OA
BRANCH   3   6
ATOM      6  CA  SER A   4     -53.969  16.479  68.872  0.00  0.00    +0.178 C 
BRANCH   6   7
ATOM      7  C   SER A   4     -54.309  16.840  70.338  0.00  0.00    +0.243 C 
ATOM      8  O   SER A   4     -54.823  15.989  71.105  0.00  0.00    -0.273 OA
ATOM      9  N   ASN A   5     -53.961  18.057  70.715  0.00  0.00    -0.298 N 
ATOM     10  H   ASN A   5     -53.463  18.666  70.035  0.00  0.00    +0.150 HD
BRANCH   9  11
ATOM     11  CA  ASN A   5     -54.251  18.593  72.068  0.00  0.00    +0.146 C 
BRANCH  11  12
ATOM     12  C   ASN A   5     -54.857  19.973  72.018  0.00  0.00    +0.227 C 
ATOM     13  O   ASN A   5     -54.632  20.687  71.094  0.00  0.00    -0.286 OA
ENDBRANCH  11  12
BRANCH  11  14
ATOM     14  CB  ASN A   5     -53.002  18.642  72.861  0.00  0.00    +0.112 C 
BRANCH  14  15
ATOM     15  CG  ASN A   5     -52.288  17.310  72.873  0.00  0.00    +0.222 C 
ATOM     16  ND2 ASN A   5     -52.580  16.491  73.900  0.00  0.00    -0.329 N 
ATOM     17 HD21 ASN A   5     -53.287  16.776  74.607  0.00  0.00    +0.145 HD
ATOM     18 HD22 ASN A   5     -52.098  15.573  73.987  0.00  0.00    +0.145 HD
ATOM     19  OD1 ASN A   5     -51.460  17.032  72.002  0.00  0.00    -0.275 OA
ENDBRANCH  14  15
ENDBRANCH  11  14
ENDBRANCH   9  11
ENDBRANCH   6   7
BRANCH   6  20
ATOM     20  CB  SER A   4     -55.103  16.872  67.942  0.00  0.00    +0.166 C 
BRANCH  20  21
ATOM     21  OG  SER A   4     -56.194  16.035  68.124  0.00  0.00    -0.380 OA
ATOM     22  H   SER A   4     -55.928  15.101  67.930  0.00  0.00    +0.211 HD
ENDBRANCH  20  21
ENDBRANCH   6  20
ENDBRANCH   3   6
ENDBRANCH   1   2
BRANCH   1  24
ATOM     23  C   VAL A   2     -52.971  12.119  66.051  0.00  0.00    +0.241 C 
ATOM     24  N   TYR A   3     -52.133  12.899  66.739  0.00  0.00    -0.297 N 
ATOM     25  H   TYR A   3     -51.330  13.333  66.241  0.00  0.00    +0.150 HD
ATOM     26  O   VAL A   2     -53.966  11.600  66.546  0.00  0.00    -0.273 OA
BRANCH  23  27
ATOM     27  CA  VAL A   2     -52.711  12.022  64.520  0.00  0.00    +0.148 C 
BRANCH  27  29
ATOM     28  C   ARG A   1     -51.648  10.052  63.737  0.00  0.00    +0.238 C 
ATOM     29  N   VAL A   2     -52.750  10.651  64.058  0.00  0.00    -0.297 N 
ATOM     30  H   VAL A   2     -53.658  10.150  63.984  0.00  0.00    +0.150 HD
ATOM     31  O   ARG A   1     -50.571  10.550  63.910  0.00  0.00    -0.274 OA
BRANCH  28  32
ATOM     32  CA  ARG A   1     -51.798   8.635  63.129  0.00  0.00    +0.145 C 
BRANCH  32  33
ATOM     33  N   ARG A   1     -50.795   8.582  62.066  0.00  0.00    -0.238 NA
ATOM     34  H   ARG A   1     -49.970   7.952  62.131  0.00  0.00    +0.142 HD
ENDBRANCH  32  33
BRANCH  32  35
ATOM     35  CB  ARG A   1     -51.575   7.511  64.170  0.00  0.00    +0.030 C 
BRANCH  35  36
ATOM     36  CG  ARG A   1     -52.568   7.545  65.316  0.00  0.00    +0.045 C 
BRANCH  36  37
ATOM     37  CD  ARG A   1     -52.402   6.386  66.245  0.00  0.00    +0.174 C 
BRANCH  37  38
ATOM     38  NE  ARG A   1     -53.184   6.571  67.449  0.00  0.00    -0.265 N 
ATOM     39  CZ  ARG A   1     -53.399   5.651  68.339  0.00  0.00    +0.342 C 
ATOM     40  NH2 ARG A   1     -54.015   5.953  69.443  0.00  0.00    -0.292 N 
ATOM     41 HH21 ARG A   1     -54.189   5.219  70.159  0.00  0.00    +0.255 HD
ATOM     42 HH22 ARG A   1     -54.334   6.929  69.611  0.00  0.00    +0.255 HD
ATOM     43  NH1 ARG A   1     -52.918   4.424  68.168  0.00  0.00    -0.292 N 
ATOM     44 HH11 ARG A   1     -53.094   3.692  68.885  0.00  0.00    +0.255 HD
ATOM     45 HH12 ARG A   1     -52.365   4.196  67.317  0.00  0.00    +0.255 HD
ATOM     46  HE  ARG A   1     -53.604   7.508  67.613  0.00  0.00    +0.259 HD
ENDBRANCH  37  38
ENDBRANCH  36  37
ENDBRANCH  35  36
ENDBRANCH  32  35
ENDBRANCH  28  32
ENDBRANCH  27  29
BRANCH  27  47
ATOM     47  CB  VAL A   2     -53.804  12.855  63.801  0.00  0.00    +0.027 C 
ATOM     48  CG2 VAL A   2     -53.646  14.324  64.197  0.00  0.00    +0.002 C 
ATOM     49  CG1 VAL A   2     -53.705  12.734  62.284  0.00  0.00    +0.002 C 
ENDBRANCH  27  47
ENDBRANCH  23  27
ENDBRANCH   1  24
BRANCH   1  50
ATOM     50  CB  TYR A   3     -51.076  12.737  68.992  0.00  0.00    +0.055 C 
BRANCH  50  51
ATOM     51  CG  TYR A   3     -50.763  11.250  68.866  0.00  0.00    -0.020 A 
ATOM     52  CD2 TYR A   3     -51.383  10.349  69.636  0.00  0.00    -0.001 A 
ATOM     53  CE2 TYR A   3     -51.168   8.986  69.498  0.00  0.00    +0.036 A 
ATOM     54  CZ  TYR A   3     -50.246   8.490  68.612  0.00  0.00    +0.134 A 
ATOM     55  CE1 TYR A   3     -49.567   9.364  67.828  0.00  0.00    +0.036 A 
ATOM     56  CD1 TYR A   3     -49.851  10.752  67.923  0.00  0.00    -0.001 A 
BRANCH  54  57
ATOM     57  OH  TYR A   3     -50.104   7.092  68.608  0.00  0.00    -0.506 OA
ATOM     58  HH  TYR A   3     -50.718   6.697  69.277  0.00  0.00    +0.292 HD
ENDBRANCH  54  57
ENDBRANCH  50  51
ENDBRANCH   1  50
TORSDOF 22
REMARK  Name = ../refined-set-2016/4loh/4loh_pocket.pdb
REMARK  279 active torsions:
REMARK  status: ('A' for Active; 'I' for Inactive)
REMARK    1  A    between atoms: _1  and  _3
REMARK    2  A    between atoms: _3  and  _4
REMARK    3  A    between atoms: _6  and  _8
REMARK    4  A    between atoms: _8  and  _9
REMARK    5  A    between atoms: _8  and  _11
REMARK    6  A    between atoms: _11  and  _12
REMARK    7  A    between atoms: _15  and  _17
REMARK    8  A    between atoms: _17  and  _18
REMARK    9  A    between atoms: _21  and  _23
REMARK   10  A    between atoms: _23  and  _24
REMARK   11  A    between atoms: _23  and  _26
REMARK   12  A    between atoms: _26  and  _27
REMARK   13  A    between atoms: _37  and  _39
REMARK   14  A    between atoms: _39  and  _40
REMARK   15  A    between atoms: _39  and  _42
REMARK   16  A    between atoms: _42  and  _43
REMARK   17  A    between atoms: _45  and  _47
REMARK   18  A    between atoms: _47  and  _48
REMARK   19  A    between atoms: _47  and  _50
REMARK   20  A    between atoms: _50  and  _51
REMARK   21  A    between atoms: _56  and  _57
REMARK   22  A    between atoms: _59  and  _61
REMARK   23  A    between atoms: _61  and  _62
REMARK   24  A    between atoms: _61  and  _64
REMARK   25  A    between atoms: _64  and  _65
REMARK   26  A    between atoms: _70  and  _71
REMARK   27  A    between atoms: _73  and  _75
REMARK   28  A    between atoms: _75  and  _76
REMARK   29  A    between atoms: _75  and  _78
REMARK   30  A    between atoms: _78  and  _79
REMARK   31  A    between atoms: _82  and  _84
REMARK   32  A    between atoms: _84  and  _85
REMARK   33  A    between atoms: _87  and  _89
REMARK   34  A    between atoms: _89  and  _90
REMARK   35  A    between atoms: _89  and  _92
REMARK   36  A    between atoms: _92  and  _93
REMARK   37  A    between atoms: _98  and  _99
REMARK   38  A    between atoms: _101  and  _103
REMARK   39  A    between atoms: _103  and  _104
REMARK   40  A    between atoms: _103  and  _106
REMARK   41  A    between atoms: _106  and  _107
REMARK   42  A    between atoms: _110  and  _112
REMARK   43  A    between atoms: _112  and  _113
REMARK   44  A    between atoms: _112  and  _115
REMARK   45  A    between atoms: _115  and  _116
REMARK   46  A    between atoms: _116  and  _117
REMARK   47  A    between atoms: _117  and  _118
REMARK   48  A    between atoms: _127  and  _129
REMARK   49  A    between atoms: _129  and  _130
REMARK   50  A    between atoms: _129  and  _132
REMARK   51  A    between atoms: _132  and  _133
REMARK   52  A    between atoms: _136  and  _138
REMARK   53  A    between atoms: _138  and  _139
REMARK   54  A    between atoms: _138  and  _141
REMARK   55  A    between atoms: _141  and  _142
REMARK   56  A    between atoms: _145  and  _147
REMARK   57  A    between atoms: _147  and  _148
REMARK   58  A    between atoms: _147  and  _150
REMARK   59  A    between atoms: _150  and  _151
REMARK   60  A    between atoms: _151  and  _152
REMARK   61  A    between atoms: _157  and  _159
REMARK   62  A    between atoms: _159  and  _160
REMARK   63  A    between atoms: _159  and  _162
REMARK   64  A    between atoms: _162  and  _163
REMARK   65  A    between atoms: _168  and  _170
REMARK   66  A    between atoms: _170  and  _171
REMARK   67  A    between atoms: _174  and  _176
REMARK   68  A    between atoms: _176  and  _177
REMARK   69  A    between atoms: _179  and  _181
REMARK   70  A    between atoms: _181  and  _182
REMARK   71  A    between atoms: _181  and  _184
REMARK   72  A    between atoms: _184  and  _185
REMARK   73  A    between atoms: _188  and  _190
REMARK   74  A    between atoms: _190  and  _191
REMARK   75  A    between atoms: _190  and  _193
REMARK   76  A    between atoms: _193  and  _194
REMARK   77  A    between atoms: _194  and  _195
REMARK   78  A    between atoms: _195  and  _196
REMARK   79  A    between atoms: _205  and  _207
REMARK   80  A    between atoms: _207  and  _208
REMARK   81  A    between atoms: _207  and  _210
REMARK   82  A    between atoms: _213  and  _215
REMARK   83  A    between atoms: _215  and  _216
REMARK   84  A    between atoms: _215  and  _218
REMARK   85  A    between atoms: _218  and  _219
REMARK   86  A    between atoms: _224  and  _225
REMARK   87  A    between atoms: _227  and  _229
REMARK   88  A    between atoms: _229  and  _230
REMARK   89  A    between atoms: _229  and  _232
REMARK   90  A    between atoms: _232  and  _233
REMARK   91  A    between atoms: _235  and  _237
REMARK   92  A    between atoms: _237  and  _238
REMARK   93  A    between atoms: _237  and  _240
REMARK   94  A    between atoms: _240  and  _241
REMARK   95  A    between atoms: _246  and  _248
REMARK   96  A    between atoms: _248  and  _249
REMARK   97  A    between atoms: _248  and  _251
REMARK   98  A    between atoms: _251  and  _252
REMARK   99  A    between atoms: _252  and  _253
REMARK  100  A    between atoms: _256  and  _258
REMARK  101  A    between atoms: _258  and  _259
REMARK  102  A    between atoms: _258  and  _261
REMARK  103  A    between atoms: _261  and  _262
REMARK  104  A    between atoms: _267  and  _268
REMARK  105  A    between atoms: _270  and  _272
REMARK  106  A    between atoms: _272  and  _273
REMARK  107  A    between atoms: _276  and  _278
REMARK  108  A    between atoms: _278  and  _279
REMARK  109  A    between atoms: _278  and  _281
REMARK  110  A    between atoms: _281  and  _282
REMARK  111  A    between atoms: _286  and  _287
REMARK  112  A    between atoms: _292  and  _294
REMARK  113  A    between atoms: _294  and  _295
REMARK  114  A    between atoms: _294  and  _297
REMARK  115  A    between atoms: _297  and  _298
REMARK  116  A    between atoms: _301  and  _303
REMARK  117  A    between atoms: _303  and  _304
REMARK  118  A    between atoms: _303  and  _306
REMARK  119  A    between atoms: _306  and  _307
REMARK  120  A    between atoms: _307  and  _308
REMARK  121  A    between atoms: _313  and  _315
REMARK  122  A    between atoms: _315  and  _316
REMARK  123  A    between atoms: _315  and  _318
REMARK  124  A    between atoms: _318  and  _319
REMARK  125  A    between atoms: _322  and  _324
REMARK  126  A    between atoms: _324  and  _325
REMARK  127  A    between atoms: _324  and  _327
REMARK  128  A    between atoms: _327  and  _328
REMARK  129  A    between atoms: _331  and  _333
REMARK  130  A    between atoms: _333  and  _334
REMARK  131  A    between atoms: _333  and  _336
REMARK  132  A    between atoms: _336  and  _337
REMARK  133  A    between atoms: _343  and  _345
REMARK  134  A    between atoms: _345  and  _346
REMARK  135  A    between atoms: _348  and  _350
REMARK  136  A    between atoms: _350  and  _351
REMARK  137  A    between atoms: _350  and  _353
REMARK  138  A    between atoms: _353  and  _354
REMARK  139  A    between atoms: _357  and  _359
REMARK  140  A    between atoms: _359  and  _360
REMARK  141  A    between atoms: _363  and  _365
REMARK  142  A    between atoms: _365  and  _366
REMARK  143  A    between atoms: _365  and  _368
REMARK  144  A    between atoms: _368  and  _369
REMARK  145  A    between atoms: _379  and  _381
REMARK  146  A    between atoms: _381  and  _382
REMARK  147  A    between atoms: _381  and  _384
REMARK  148  A    between atoms: _384  and  _385
REMARK  149  A    between atoms: _387  and  _389
REMARK  150  A    between atoms: _389  and  _390
REMARK  151  A    between atoms: _389  and  _392
REMARK  152  A    between atoms: _392  and  _393
REMARK  153  A    between atoms: _398  and  _399
REMARK  154  A    between atoms: _401  and  _403
REMARK  155  A    between atoms: _403  and  _404
REMARK  156  A    between atoms: _403  and  _406
REMARK  157  A    between atoms: _406  and  _407
REMARK  158  A    between atoms: _412  and  _413
REMARK  159  A    between atoms: _415  and  _417
REMARK  160  A    between atoms: _417  and  _418
REMARK  161  A    between atoms: _417  and  _420
REMARK  162  A    between atoms: _420  and  _421
REMARK  163  A    between atoms: _424  and  _426
REMARK  164  A    between atoms: _426  and  _427
REMARK  165  A    between atoms: _429  and  _431
REMARK  166  A    between atoms: _431  and  _432
REMARK  167  A    between atoms: _431  and  _434
REMARK  168  A    between atoms: _434  and  _435
REMARK  169  A    between atoms: _440  and  _441
REMARK  170  A    between atoms: _443  and  _445
REMARK  171  A    between atoms: _445  and  _446
REMARK  172  A    between atoms: _445  and  _448
REMARK  173  A    between atoms: _448  and  _449
REMARK  174  A    between atoms: _452  and  _454
REMARK  175  A    between atoms: _454  and  _455
REMARK  176  A    between atoms: _454  and  _457
REMARK  177  A    between atoms: _457  and  _458
REMARK  178  A    between atoms: _458  and  _459
REMARK  179  A    between atoms: _459  and  _460
REMARK  180  A    between atoms: _469  and  _471
REMARK  181  A    between atoms: _471  and  _472
REMARK  182  A    between atoms: _471  and  _474
REMARK  183  A    between atoms: _474  and  _475
REMARK  184  A    between atoms: _478  and  _480
REMARK  185  A    between atoms: _480  and  _481
REMARK  186  A    between atoms: _480  and  _483
REMARK  187  A    between atoms: _483  and  _484
REMARK  188  A    between atoms: _487  and  _489
REMARK  189  A    between atoms: _489  and  _490
REMARK  190  A    between atoms: _489  and  _492
REMARK  191  A    between atoms: _492  and  _493
REMARK  192  A    between atoms: _493  and  _494
REMARK  193  A    between atoms: _494  and  _495
REMARK  194  A    between atoms: _504  and  _506
REMARK  195  A    between atoms: _506  and  _507
REMARK  196  A    between atoms: _506  and  _509
REMARK  197  A    between atoms: _509  and  _510
REMARK  198  A    between atoms: _513  and  _515
REMARK  199  A    between atoms: _515  and  _516
REMARK  200  A    between atoms: _515  and  _518
REMARK  201  A    between atoms: _518  and  _519
REMARK  202  A    between atoms: _519  and  _520
REMARK  203  A    between atoms: _520  and  _521
REMARK  204  A    between atoms: _521  and  _522
REMARK  205  A    between atoms: _526  and  _528
REMARK  206  A    between atoms: _528  and  _529
REMARK  207  A    between atoms: _528  and  _531
REMARK  208  A    between atoms: _531  and  _532
REMARK  209  A    between atoms: _532  and  _533
REMARK  210  A    between atoms: _538  and  _540
REMARK  211  A    between atoms: _540  and  _541
REMARK  212  A    between atoms: _540  and  _543
REMARK  213  A    between atoms: _543  and  _544
REMARK  214  A    between atoms: _549  and  _551
REMARK  215  A    between atoms: _551  and  _552
REMARK  216  A    between atoms: _555  and  _557
REMARK  217  A    between atoms: _557  and  _558
REMARK  218  A    between atoms: _557  and  _560
REMARK  219  A    between atoms: _560  and  _561
REMARK  220  A    between atoms: _564  and  _566
REMARK  221  A    between atoms: _566  and  _567
REMARK  222  A    between atoms: _566  and  _569
REMARK  223  A    between atoms: _569  and  _570
REMARK  224  A    between atoms: _570  and  _571
REMARK  225  A    between atoms: _571  and  _572
REMARK  226  A    between atoms: _581  and  _583
REMARK  227  A    between atoms: _583  and  _584
REMARK  228  A    between atoms: _583  and  _586
REMARK  229  A    between atoms: _589  and  _591
REMARK  230  A    between atoms: _591  and  _592
REMARK  231  A    between atoms: _591  and  _594
REMARK  232  A    between atoms: _594  and  _595
REMARK  233  A    between atoms: _600  and  _601
REMARK  234  A    between atoms: _603  and  _605
REMARK  235  A    between atoms: _605  and  _606
REMARK  236  A    between atoms: _605  and  _608
REMARK  237  A    between atoms: _608  and  _609
REMARK  238  A    between atoms: _611  and  _613
REMARK  239  A    between atoms: _613  and  _614
REMARK  240  A    between atoms: _613  and  _616
REMARK  241  A    between atoms: _616  and  _617
REMARK  242  A    between atoms: _622  and  _624
REMARK  243  A    between atoms: _624  and  _625
REMARK  244  A    between atoms: _624  and  _627
REMARK  245  A    between atoms: _627  and  _628
REMARK  246  A    between atoms: _628  and  _629
REMARK  247  A    between atoms: _632  and  _634
REMARK  248  A    between atoms: _634  and  _635
REMARK  249  A    between atoms: _634  and  _637
REMARK  250  A    between atoms: _637  and  _638
REMARK  251  A    between atoms: _643  and  _644
REMARK  252  A    between atoms: _646  and  _648
REMARK  253  A    between atoms: _648  and  _649
REMARK  254  A    between atoms: _652  and  _654
REMARK  255  A    between atoms: _654  and  _655
REMARK  256  A    between atoms: _654  and  _657
REMARK  257  A    between atoms: _657  and  _658
REMARK  258  A    between atoms: _662  and  _663
REMARK  259  A    between atoms: _668  and  _670
REMARK  260  A    between atoms: _670  and  _671
REMARK  261  A    between atoms: _670  and  _673
REMARK  262  A    between atoms: _673  and  _674
REMARK  263  A    between atoms: _677  and  _679
REMARK  264  A    between atoms: _679  and  _680
REMARK  265  A    between atoms: _679  and  _682
REMARK  266  A    between atoms: _682  and  _683
REMARK  267  A    between atoms: _683  and  _684
REMARK  268  A    between atoms: _689  and  _691
REMARK  269  A    between atoms: _691  and  _692
REMARK  270  A    between atoms: _691  and  _694
REMARK  271  A    between atoms: _694  and  _695
REMARK  272  A    between atoms: _698  and  _700
REMARK  273  A    between atoms: _700  and  _701
REMARK  274  A    between atoms: _700  and  _703
REMARK  275  A    between atoms: _703  and  _704
REMARK  276  A    between atoms: _707  and  _709
REMARK  277  A    between atoms: _709  and  _710
REMARK  278  A    between atoms: _709  and  _712
REMARK  279  A    between atoms: _712  and  _713
REMARK                            x       y       z     vdW  Elec       q    Type
REMARK                         _______ _______ _______ _____ _____    ______ ____
ROOT
ATOM      1  C   THR A   4     -59.278   7.573  79.162  0.00  0.00    +0.246 C 
ATOM      2  N   PRO A   5     -58.294   6.923  79.719  0.00  0.00    -0.272 N 
ATOM      3  CA  PRO A   5     -58.596   5.622  80.258  0.00  0.00    +0.152 C 
ATOM      4  CB  PRO A   5     -57.243   5.180  80.823  0.00  0.00    +0.031 C 
ATOM      5  CG  PRO A   5     -56.224   5.896  79.996  0.00  0.00    +0.024 C 
ATOM      6  CD  PRO A   5     -56.846   7.204  79.709  0.00  0.00    +0.094 C 
ATOM      7  O   THR A   4     -60.414   7.127  79.162  0.00  0.00    -0.273 OA
ENDROOT
BRANCH   3   8
ATOM      8  C   PRO A   5     -59.621   5.602  81.377  0.00  0.00    +0.241 C 
ATOM      9  N   LEU A   6     -59.873   6.737  82.010  0.00  0.00    -0.297 N 
ATOM     10  H   LEU A   6     -59.339   7.594  81.762  0.00  0.00    +0.150 HD
ATOM     11  O   PRO A   5     -60.104   4.525  81.769  0.00  0.00    -0.273 OA
BRANCH   9  12
ATOM     12  CA  LEU A   6     -60.892   6.799  83.052  0.00  0.00    +0.149 C 
BRANCH  12  13
ATOM     13  C   LEU A   6     -62.290   6.595  82.469  0.00  0.00    +0.241 C 
ATOM     14  O   LEU A   6     -63.181   6.067  83.153  0.00  0.00    -0.273 OA
ATOM     15  N   GLN A   7     -62.454   6.885  81.196  0.00  0.00    -0.297 N 
ATOM     16  H   GLN A   7     -61.661   7.287  80.656  0.00  0.00    +0.150 HD
BRANCH  15  17
ATOM     17  CA  GLN A   7     -63.709   6.655  80.541  0.00  0.00    +0.149 C 
BRANCH  17  18
ATOM     18  C   GLN A   7     -63.883   5.199  80.365  0.00  0.00    +0.241 C 
ATOM     19  O   GLN A   7     -64.984   4.749  80.339  0.00  0.00    -0.273 OA
ATOM     20  N   THR A   8     -62.778   4.441  80.162  0.00  0.00    -0.295 N 
ATOM     21  H   THR A   8     -61.848   4.903  80.105  0.00  0.00    +0.150 HD
BRANCH  20  22
ATOM     22  CA  THR A   8     -62.862   3.022  80.024  0.00  0.00    +0.176 C 
BRANCH  22  23
ATOM     23  C   THR A   8     -63.353   2.405  81.341  0.00  0.00    +0.243 C 
ATOM     24  N   LEU A   9     -62.851   2.857  82.454  0.00  0.00    -0.298 N 
ATOM     25  H   LEU A   9     -62.155   3.629  82.414  0.00  0.00    +0.150 HD
ATOM     26  O   THR A   8     -64.139   1.491  81.332  0.00  0.00    -0.273 OA
BRANCH  24  27
ATOM     27  CA  LEU A   9     -63.227   2.323  83.743  0.00  0.00    +0.137 C 
BRANCH  27  28
ATOM     28  C   LEU A   9     -64.740   2.645  83.958  0.00  0.00    +0.227 C 
ATOM     29  O   LEU A   9     -65.494   1.804  84.388  0.00  0.00    -0.286 OA
ENDBRANCH  27  28
BRANCH  27  30
ATOM     30  CB  LEU A   9     -62.422   2.958  84.828  0.00  0.00    +0.028 C 
BRANCH  30  31
ATOM     31  CG  LEU A   9     -60.942   2.594  84.865  0.00  0.00    +0.002 C 
ATOM     32  CD2 LEU A   9     -60.306   3.216  86.060  0.00  0.00    +0.000 C 
ATOM     33  CD1 LEU A   9     -60.796   1.071  84.992  0.00  0.00    +0.000 C 
ENDBRANCH  30  31
ENDBRANCH  27  30
ENDBRANCH  24  27
ENDBRANCH  22  23
BRANCH  22  34
ATOM     34  CB  THR A   8     -61.533   2.383  79.604  0.00  0.00    +0.137 C 
ATOM     35  CG2 THR A   8     -61.596   0.937  79.565  0.00  0.00    +0.034 C 
BRANCH  34  36
ATOM     36  OG1 THR A   8     -61.120   2.863  78.334  0.00  0.00    -0.382 OA
ATOM     37  HG1 THR A   8     -61.003   3.845  78.376  0.00  0.00    +0.210 HD
ENDBRANCH  34  36
ENDBRANCH  22  34
ENDBRANCH  20  22
ENDBRANCH  17  18
BRANCH  17  38
ATOM     38  CB  GLN A   7     -63.769   7.274  79.162  0.00  0.00    +0.039 C 
BRANCH  38  39
ATOM     39  CG  GLN A   7     -64.026   8.767  79.164  0.00  0.00    +0.087 C 
BRANCH  39  40
ATOM     40  CD  GLN A   7     -64.109   9.281  77.713  0.00  0.00    +0.219 C 
ATOM     41  NE2 GLN A   7     -64.862  10.359  77.461  0.00  0.00    -0.329 N 
ATOM     42 HE21 GLN A   7     -65.368  10.833  78.236  0.00  0.00    +0.145 HD
ATOM     43 HE22 GLN A   7     -64.941  10.723  76.490  0.00  0.00    +0.145 HD
ATOM     44  OE1 GLN A   7     -63.500   8.695  76.840  0.00  0.00    -0.275 OA
ENDBRANCH  39  40
ENDBRANCH  38  39
ENDBRANCH  17  38
ENDBRANCH  15  17
ENDBRANCH  12  13
BRANCH  12  45
ATOM     45  CB  LEU A   6     -60.812   8.089  83.838  0.00  0.00    +0.029 C 
BRANCH  45  46
ATOM     46  CG  LEU A   6     -59.547   8.327  84.650  0.00  0.00    +0.002 C 
ATOM     47  CD2 LEU A   6     -59.363   7.284  85.720  0.00  0.00    +0.000 C 
ATOM     48  CD1 LEU A   6     -59.520   9.694  85.241  0.00  0.00    +0.000 C 
ENDBRANCH  45  46
ENDBRANCH  12  45
ENDBRANCH   9  12
ENDBRANCH   3   8
BRANCH   1  49
ATOM     49  CA  THR A   4     -59.006   8.974  78.568  0.00  0.00    +0.176 C 
BRANCH  49  52
ATOM     50  C   ALA A   3     -58.171  10.064  80.540  0.00  0.00    +0.241 C 
ATOM     51  O   ALA A   3     -59.040   9.625  81.270  0.00  0.00    -0.273 OA
ATOM     52  N   THR A   4     -58.074   9.754  79.276  0.00  0.00    -0.295 N 
ATOM     53  H   THR A   4     -57.248  10.110  78.754  0.00  0.00    +0.150 HD
BRANCH  50  54
ATOM     54  CA  ALA A   3     -57.141  11.043  81.050  0.00  0.00    +0.149 C 
ATOM     55  CB  ALA A   3     -56.445  10.446  82.245  0.00  0.00    +0.031 C 
BRANCH  54  57
ATOM     56  C   TYR A   2     -58.206  13.156  80.437  0.00  0.00    +0.241 C 
ATOM     57  N   ALA A   3     -57.823  12.309  81.374  0.00  0.00    -0.297 N 
ATOM     58  H   ALA A   3     -58.008  12.542  82.371  0.00  0.00    +0.150 HD
ATOM     59  O   TYR A   2     -57.911  13.017  79.274  0.00  0.00    -0.273 OA
BRANCH  56  60
ATOM     60  CA  TYR A   2     -59.016  14.377  80.885  0.00  0.00    +0.153 C 
BRANCH  60  63
ATOM     61  C   GLU A   1     -57.691  16.280  80.086  0.00  0.00    +0.238 C 
ATOM     62  O   GLU A   1     -56.939  16.281  81.005  0.00  0.00    -0.274 OA
ATOM     63  N   TYR A   2     -58.743  15.461  79.968  0.00  0.00    -0.297 N 
ATOM     64  H   TYR A   2     -59.399  15.612  79.175  0.00  0.00    +0.150 HD
BRANCH  61  65
ATOM     65  CA  GLU A   1     -57.484  17.246  78.957  0.00  0.00    +0.145 C 
BRANCH  65  66
ATOM     66  N   GLU A   1     -56.621  18.320  79.361  0.00  0.00    -0.238 NA
ATOM     67  H   GLU A   1     -56.033  18.209  80.211  0.00  0.00    +0.142 HD
ENDBRANCH  65  66
BRANCH  65  68
ATOM     68  CB  GLU A   1     -56.851  16.480  77.735  0.00  0.00    +0.038 C 
BRANCH  68  69
ATOM     69  CG  GLU A   1     -55.542  15.789  78.045  0.00  0.00    +0.116 C 
BRANCH  69  70
ATOM     70  CD  GLU A   1     -54.777  15.427  76.742  0.00  0.00    +0.365 C 
ATOM     71  OE2 GLU A   1     -54.406  14.248  76.553  0.00  0.00    -0.246 OA
ATOM     72  OE1 GLU A   1     -54.585  16.298  75.895  0.00  0.00    -0.246 OA
ENDBRANCH  69  70
ENDBRANCH  68  69
ENDBRANCH  65  68
ENDBRANCH  61  65
ENDBRANCH  60  63
BRANCH  60  73
ATOM     73  CB  TYR A   2     -60.477  13.968  80.848  0.00  0.00    +0.055 C 
BRANCH  73  74
ATOM     74  CG  TYR A   2     -61.425  14.924  81.522  0.00  0.00    -0.020 A 
ATOM     75  CD2 TYR A   2     -61.681  14.825  82.837  0.00  0.00    -0.001 A 
ATOM     76  CE2 TYR A   2     -62.512  15.702  83.484  0.00  0.00    +0.036 A 
ATOM     77  CZ  TYR A   2     -63.120  16.665  82.791  0.00  0.00    +0.134 A 
ATOM     78  CE1 TYR A   2     -62.883  16.827  81.481  0.00  0.00    +0.036 A 
ATOM     79  CD1 TYR A   2     -62.013  15.959  80.833  0.00  0.00    -0.001 A 
BRANCH  77  80
ATOM     80  OH  TYR A   2     -63.931  17.530  83.426  0.00  0.00    -0.506 OA
ATOM     81  HH  TYR A   2     -64.002  17.274  84.380  0.00  0.00    +0.292 HD
ENDBRANCH  77  80
ENDBRANCH  73  74
ENDBRANCH  60  73
ENDBRANCH  56  60
ENDBRANCH  54  57
ENDBRANCH  50  54
ENDBRANCH  49  52
BRANCH  49  82
ATOM     82  CB  THR A   4     -58.653   8.960  77.024  0.00  0.00    +0.137 C 
ATOM     83  CG2 THR A   4     -59.740   8.492  76.309  0.00  0.00    +0.034 C 
BRANCH  82  84
ATOM     84  OG1 THR A   4     -58.638  10.307  76.514  0.00  0.00    -0.382 OA
ATOM     85  HG1 THR A   4     -58.417  10.291  75.549  0.00  0.00    +0.210 HD
ENDBRANCH  82  84
ENDBRANCH  49  82
ENDBRANCH   1  49
TORSDOF 34
REMARK  Name = ../refined-set-2016/4loh/4loh_pocket.pdb
REMARK  279 active torsions:
REMARK  status: ('A' for Active; 'I' for Inactive)
REMARK    1  A    between atoms: _1  and  _3
REMARK    2  A    between atoms: _3  and  _4
REMARK    3  A    between atoms: _6  and  _8
REMARK    4  A    between atoms: _8  and  _9
REMARK    5  A    between atoms: _8  and  _11
REMARK    6  A    between atoms: _11  and  _12
REMARK    7  A    between atoms: _15  and  _17
REMARK    8  A    between atoms: _17  and  _18
REMARK    9  A    between atoms: _21  and  _23
REMARK   10  A    between atoms: _23  and  _24
REMARK   11  A    between atoms: _23  and  _26
REMARK   12  A    between atoms: _26  and  _27
REMARK   13  A    between atoms: _37  and  _39
REMARK   14  A    between atoms: _39  and  _40
REMARK   15  A    between atoms: _39  and  _42
REMARK   16  A    between atoms: _42  and  _43
REMARK   17  A    between atoms: _45  and  _47
REMARK   18  A    between atoms: _47  and  _48
REMARK   19  A    between atoms: _47  and  _50
REMARK   20  A    between atoms: _50  and  _51
REMARK   21  A    between atoms: _56  and  _57
REMARK   22  A    between atoms: _59  and  _61
REMARK   23  A    between atoms: _61  and  _62
REMARK   24  A    between atoms: _61  and  _64
REMARK   25  A    between atoms: _64  and  _65
REMARK   26  A    between atoms: _70  and  _71
REMARK   27  A    between atoms: _73  and  _75
REMARK   28  A    between atoms: _75  and  _76
REMARK   29  A    between atoms: _75  and  _78
REMARK   30  A    between atoms: _78  and  _79
REMARK   31  A    between atoms: _82  and  _84
REMARK   32  A    between atoms: _84  and  _85
REMARK   33  A    between atoms: _87  and  _89
REMARK   34  A    between atoms: _89  and  _90
REMARK   35  A    between atoms: _89  and  _92
REMARK   36  A    between atoms: _92  and  _93
REMARK   37  A    between atoms: _98  and  _99
REMARK   38  A    between atoms: _101  and  _103
REMARK   39  A    between atoms: _103  and  _104
REMARK   40  A    between atoms: _103  and  _106
REMARK   41  A    between atoms: _106  and  _107
REMARK   42  A    between atoms: _110  and  _112
REMARK   43  A    between atoms: _112  and  _113
REMARK   44  A    between atoms: _112  and  _115
REMARK   45  A    between atoms: _115  and  _116
REMARK   46  A    between atoms: _116  and  _117
REMARK   47  A    between atoms: _117  and  _118
REMARK   48  A    between atoms: _127  and  _129
REMARK   49  A    between atoms: _129  and  _130
REMARK   50  A    between atoms: _129  and  _132
REMARK   51  A    between atoms: _132  and  _133
REMARK   52  A    between atoms: _136  and  _138
REMARK   53  A    between atoms: _138  and  _139
REMARK   54  A    between atoms: _138  and  _141
REMARK   55  A    between atoms: _141  and  _142
REMARK   56  A    between atoms: _145  and  _147
REMARK   57  A    between atoms: _147  and  _148
REMARK   58  A    between atoms: _147  and  _150
REMARK   59  A    between atoms: _150  and  _151
REMARK   60  A    between atoms: _151  and  _152
REMARK   61  A    between atoms: _157  and  _159
REMARK   62  A    between atoms: _159  and  _160
REMARK   63  A    between atoms: _159  and  _162
REMARK   64  A    between atoms: _162  and  _163
REMARK   65  A    between atoms: _168  and  _170
REMARK   66  A    between atoms: _170  and  _171
REMARK   67  A    between atoms: _174  and  _176
REMARK   68  A    between atoms: _176  and  _177
REMARK   69  A    between atoms: _179  and  _181
REMARK   70  A    between atoms: _181  and  _182
REMARK   71  A    between atoms: _181  and  _184
REMARK   72  A    between atoms: _184  and  _185
REMARK   73  A    between atoms: _188  and  _190
REMARK   74  A    between atoms: _190  and  _191
REMARK   75  A    between atoms: _190  and  _193
REMARK   76  A    between atoms: _193  and  _194
REMARK   77  A    between atoms: _194  and  _195
REMARK   78  A    between atoms: _195  and  _196
REMARK   79  A    between atoms: _205  and  _207
REMARK   80  A    between atoms: _207  and  _208
REMARK   81  A    between atoms: _207  and  _210
REMARK   82  A    between atoms: _213  and  _215
REMARK   83  A    between atoms: _215  and  _216
REMARK   84  A    between atoms: _215  and  _218
REMARK   85  A    between atoms: _218  and  _219
REMARK   86  A    between atoms: _224  and  _225
REMARK   87  A    between atoms: _227  and  _229
REMARK   88  A    between atoms: _229  and  _230
REMARK   89  A    between atoms: _229  and  _232
REMARK   90  A    between atoms: _232  and  _233
REMARK   91  A    between atoms: _235  and  _237
REMARK   92  A    between atoms: _237  and  _238
REMARK   93  A    between atoms: _237  and  _240
REMARK   94  A    between atoms: _240  and  _241
REMARK   95  A    between atoms: _246  and  _248
REMARK   96  A    between atoms: _248  and  _249
REMARK   97  A    between atoms: _248  and  _251
REMARK   98  A    between atoms: _251  and  _252
REMARK   99  A    between atoms: _252  and  _253
REMARK  100  A    between atoms: _256  and  _258
REMARK  101  A    between atoms: _258  and  _259
REMARK  102  A    between atoms: _258  and  _261
REMARK  103  A    between atoms: _261  and  _262
REMARK  104  A    between atoms: _267  and  _268
REMARK  105  A    between atoms: _270  and  _272
REMARK  106  A    between atoms: _272  and  _273
REMARK  107  A    between atoms: _276  and  _278
REMARK  108  A    between atoms: _278  and  _279
REMARK  109  A    between atoms: _278  and  _281
REMARK  110  A    between atoms: _281  and  _282
REMARK  111  A    between atoms: _286  and  _287
REMARK  112  A    between atoms: _292  and  _294
REMARK  113  A    between atoms: _294  and  _295
REMARK  114  A    between atoms: _294  and  _297
REMARK  115  A    between atoms: _297  and  _298
REMARK  116  A    between atoms: _301  and  _303
REMARK  117  A    between atoms: _303  and  _304
REMARK  118  A    between atoms: _303  and  _306
REMARK  119  A    between atoms: _306  and  _307
REMARK  120  A    between atoms: _307  and  _308
REMARK  121  A    between atoms: _313  and  _315
REMARK  122  A    between atoms: _315  and  _316
REMARK  123  A    between atoms: _315  and  _318
REMARK  124  A    between atoms: _318  and  _319
REMARK  125  A    between atoms: _322  and  _324
REMARK  126  A    between atoms: _324  and  _325
REMARK  127  A    between atoms: _324  and  _327
REMARK  128  A    between atoms: _327  and  _328
REMARK  129  A    between atoms: _331  and  _333
REMARK  130  A    between atoms: _333  and  _334
REMARK  131  A    between atoms: _333  and  _336
REMARK  132  A    between atoms: _336  and  _337
REMARK  133  A    between atoms: _343  and  _345
REMARK  134  A    between atoms: _345  and  _346
REMARK  135  A    between atoms: _348  and  _350
REMARK  136  A    between atoms: _350  and  _351
REMARK  137  A    between atoms: _350  and  _353
REMARK  138  A    between atoms: _353  and  _354
REMARK  139  A    between atoms: _357  and  _359
REMARK  140  A    between atoms: _359  and  _360
REMARK  141  A    between atoms: _363  and  _365
REMARK  142  A    between atoms: _365  and  _366
REMARK  143  A    between atoms: _365  and  _368
REMARK  144  A    between atoms: _368  and  _369
REMARK  145  A    between atoms: _379  and  _381
REMARK  146  A    between atoms: _381  and  _382
REMARK  147  A    between atoms: _381  and  _384
REMARK  148  A    between atoms: _384  and  _385
REMARK  149  A    between atoms: _387  and  _389
REMARK  150  A    between atoms: _389  and  _390
REMARK  151  A    between atoms: _389  and  _392
REMARK  152  A    between atoms: _392  and  _393
REMARK  153  A    between atoms: _398  and  _399
REMARK  154  A    between atoms: _401  and  _403
REMARK  155  A    between atoms: _403  and  _404
REMARK  156  A    between atoms: _403  and  _406
REMARK  157  A    between atoms: _406  and  _407
REMARK  158  A    between atoms: _412  and  _413
REMARK  159  A    between atoms: _415  and  _417
REMARK  160  A    between atoms: _417  and  _418
REMARK  161  A    between atoms: _417  and  _420
REMARK  162  A    between atoms: _420  and  _421
REMARK  163  A    between atoms: _424  and  _426
REMARK  164  A    between atoms: _426  and  _427
REMARK  165  A    between atoms: _429  and  _431
REMARK  166  A    between atoms: _431  and  _432
REMARK  167  A    between atoms: _431  and  _434
REMARK  168  A    between atoms: _434  and  _435
REMARK  169  A    between atoms: _440  and  _441
REMARK  170  A    between atoms: _443  and  _445
REMARK  171  A    between atoms: _445  and  _446
REMARK  172  A    between atoms: _445  and  _448
REMARK  173  A    between atoms: _448  and  _449
REMARK  174  A    between atoms: _452  and  _454
REMARK  175  A    between atoms: _454  and  _455
REMARK  176  A    between atoms: _454  and  _457
REMARK  177  A    between atoms: _457  and  _458
REMARK  178  A    between atoms: _458  and  _459
REMARK  179  A    between atoms: _459  and  _460
REMARK  180  A    between atoms: _469  and  _471
REMARK  181  A    between atoms: _471  and  _472
REMARK  182  A    between atoms: _471  and  _474
REMARK  183  A    between atoms: _474  and  _475
REMARK  184  A    between atoms: _478  and  _480
REMARK  185  A    between atoms: _480  and  _481
REMARK  186  A    between atoms: _480  and  _483
REMARK  187  A    between atoms: _483  and  _484
REMARK  188  A    between atoms: _487  and  _489
REMARK  189  A    between atoms: _489  and  _490
REMARK  190  A    between atoms: _489  and  _492
REMARK  191  A    between atoms: _492  and  _493
REMARK  192  A    between atoms: _493  and  _494
REMARK  193  A    between atoms: _494  and  _495
REMARK  194  A    between atoms: _504  and  _506
REMARK  195  A    between atoms: _506  and  _507
REMARK  196  A    between atoms: _506  and  _509
REMARK  197  A    between atoms: _509  and  _510
REMARK  198  A    between atoms: _513  and  _515
REMARK  199  A    between atoms: _515  and  _516
REMARK  200  A    between atoms: _515  and  _518
REMARK  201  A    between atoms: _518  and  _519
REMARK  202  A    between atoms: _519  and  _520
REMARK  203  A    between atoms: _520  and  _521
REMARK  204  A    between atoms: _521  and  _522
REMARK  205  A    between atoms: _526  and  _528
REMARK  206  A    between atoms: _528  and  _529
REMARK  207  A    between atoms: _528  and  _531
REMARK  208  A    between atoms: _531  and  _532
REMARK  209  A    between atoms: _532  and  _533
REMARK  210  A    between atoms: _538  and  _540
REMARK  211  A    between atoms: _540  and  _541
REMARK  212  A    between atoms: _540  and  _543
REMARK  213  A    between atoms: _543  and  _544
REMARK  214  A    between atoms: _549  and  _551
REMARK  215  A    between atoms: _551  and  _552
REMARK  216  A    between atoms: _555  and  _557
REMARK  217  A    between atoms: _557  and  _558
REMARK  218  A    between atoms: _557  and  _560
REMARK  219  A    between atoms: _560  and  _561
REMARK  220  A    between atoms: _564  and  _566
REMARK  221  A    between atoms: _566  and  _567
REMARK  222  A    between atoms: _566  and  _569
REMARK  223  A    between atoms: _569  and  _570
REMARK  224  A    between atoms: _570  and  _571
REMARK  225  A    between atoms: _571  and  _572
REMARK  226  A    between atoms: _581  and  _583
REMARK  227  A    between atoms: _583  and  _584
REMARK  228  A    between atoms: _583  and  _586
REMARK  229  A    between atoms: _589  and  _591
REMARK  230  A    between atoms: _591  and  _592
REMARK  231  A    between atoms: _591  and  _594
REMARK  232  A    between atoms: _594  and  _595
REMARK  233  A    between atoms: _600  and  _601
REMARK  234  A    between atoms: _603  and  _605
REMARK  235  A    between atoms: _605  and  _606
REMARK  236  A    between atoms: _605  and  _608
REMARK  237  A    between atoms: _608  and  _609
REMARK  238  A    between atoms: _611  and  _613
REMARK  239  A    between atoms: _613  and  _614
REMARK  240  A    between atoms: _613  and  _616
REMARK  241  A    between atoms: _616  and  _617
REMARK  242  A    between atoms: _622  and  _624
REMARK  243  A    between atoms: _624  and  _625
REMARK  244  A    between atoms: _624  and  _627
REMARK  245  A    between atoms: _627  and  _628
REMARK  246  A    between atoms: _628  and  _629
REMARK  247  A    between atoms: _632  and  _634
REMARK  248  A    between atoms: _634  and  _635
REMARK  249  A    between atoms: _634  and  _637
REMARK  250  A    between atoms: _637  and  _638
REMARK  251  A    between atoms: _643  and  _644
REMARK  252  A    between atoms: _646  and  _648
REMARK  253  A    between atoms: _648  and  _649
REMARK  254  A    between atoms: _652  and  _654
REMARK  255  A    between atoms: _654  and  _655
REMARK  256  A    between atoms: _654  and  _657
REMARK  257  A    between atoms: _657  and  _658
REMARK  258  A    between atoms: _662  and  _663
REMARK  259  A    between atoms: _668  and  _670
REMARK  260  A    between atoms: _670  and  _671
REMARK  261  A    between atoms: _670  and  _673
REMARK  262  A    between atoms: _673  and  _674
REMARK  263  A    between atoms: _677  and  _679
REMARK  264  A    between atoms: _679  and  _680
REMARK  265  A    between atoms: _679  and  _682
REMARK  266  A    between atoms: _682  and  _683
REMARK  267  A    between atoms: _683  and  _684
REMARK  268  A    between atoms: _689  and  _691
REMARK  269  A    between atoms: _691  and  _692
REMARK  270  A    between atoms: _691  and  _694
REMARK  271  A    between atoms: _694  and  _695
REMARK  272  A    between atoms: _698  and  _700
REMARK  273  A    between atoms: _700  and  _701
REMARK  274  A    between atoms: _700  and  _703
REMARK  275  A    between atoms: _703  and  _704
REMARK  276  A    between atoms: _707  and  _709
REMARK  277  A    between atoms: _709  and  _710
REMARK  278  A    between atoms: _709  and  _712
REMARK  279  A    between atoms: _712  and  _713
REMARK                            x       y       z     vdW  Elec       q    Type
REMARK                         _______ _______ _______ _____ _____    ______ ____
ROOT
ATOM      1  CB  PHE A   1     -55.741   4.324  86.967  0.00  0.00    +0.051 C 
ENDROOT
BRANCH   1   2
ATOM      2  CG  PHE A   1     -55.374   5.056  85.716  0.00  0.00    -0.020 A 
ATOM      3  CD2 PHE A   1     -55.440   6.404  85.647  0.00  0.00    -0.004 A 
ATOM      4  CE2 PHE A   1     -55.114   7.061  84.486  0.00  0.00    -0.000 A 
ATOM      5  CZ  PHE A   1     -54.693   6.347  83.404  0.00  0.00    -0.000 A 
ATOM      6  CE1 PHE A   1     -54.627   4.987  83.467  0.00  0.00    -0.000 A 
ATOM      7  CD1 PHE A   1     -54.936   4.359  84.620  0.00  0.00    -0.004 A 
ENDBRANCH   1   2
BRANCH   1   8
ATOM      8  CA  PHE A   1     -54.539   3.937  87.868  0.00  0.00    +0.137 C 
BRANCH   8   9
ATOM      9  N   PHE A   1     -54.998   3.332  89.100  0.00  0.00    -0.239 NA
ATOM     10  H   PHE A   1     -56.017   3.193  89.251  0.00  0.00    +0.142 HD
ENDBRANCH   8   9
BRANCH   8  11
ATOM     11  C   PHE A   1     -53.677   5.171  88.158  0.00  0.00    +0.224 C 
ATOM     12  O   PHE A   1     -52.581   5.337  87.550  0.00  0.00    -0.287 OA
ENDBRANCH   8  11
ENDBRANCH   1   8
TORSDOF 4
REMARK  Name = ../refined-set-2016/4loh/4loh_pocket.pdb
REMARK  279 active torsions:
REMARK  status: ('A' for Active; 'I' for Inactive)
REMARK    1  A    between atoms: _1  and  _3
REMARK    2  A    between atoms: _3  and  _4
REMARK    3  A    between atoms: _6  and  _8
REMARK    4  A    between atoms: _8  and  _9
REMARK    5  A    between atoms: _8  and  _11
REMARK    6  A    between atoms: _11  and  _12
REMARK    7  A    between atoms: _15  and  _17
REMARK    8  A    between atoms: _17  and  _18
REMARK    9  A    between atoms: _21  and  _23
REMARK   10  A    between atoms: _23  and  _24
REMARK   11  A    between atoms: _23  and  _26
REMARK   12  A    between atoms: _26  and  _27
REMARK   13  A    between atoms: _37  and  _39
REMARK   14  A    between atoms: _39  and  _40
REMARK   15  A    between atoms: _39  and  _42
REMARK   16  A    between atoms: _42  and  _43
REMARK   17  A    between atoms: _45  and  _47
REMARK   18  A    between atoms: _47  and  _48
REMARK   19  A    between atoms: _47  and  _50
REMARK   20  A    between atoms: _50  and  _51
REMARK   21  A    between atoms: _56  and  _57
REMARK   22  A    between atoms: _59  and  _61
REMARK   23  A    between atoms: _61  and  _62
REMARK   24  A    between atoms: _61  and  _64
REMARK   25  A    between atoms: _64  and  _65
REMARK   26  A    between atoms: _70  and  _71
REMARK   27  A    between atoms: _73  and  _75
REMARK   28  A    between atoms: _75  and  _76
REMARK   29  A    between atoms: _75  and  _78
REMARK   30  A    between atoms: _78  and  _79
REMARK   31  A    between atoms: _82  and  _84
REMARK   32  A    between atoms: _84  and  _85
REMARK   33  A    between atoms: _87  and  _89
REMARK   34  A    between atoms: _89  and  _90
REMARK   35  A    between atoms: _89  and  _92
REMARK   36  A    between atoms: _92  and  _93
REMARK   37  A    between atoms: _98  and  _99
REMARK   38  A    between atoms: _101  and  _103
REMARK   39  A    between atoms: _103  and  _104
REMARK   40  A    between atoms: _103  and  _106
REMARK   41  A    between atoms: _106  and  _107
REMARK   42  A    between atoms: _110  and  _112
REMARK   43  A    between atoms: _112  and  _113
REMARK   44  A    between atoms: _112  and  _115
REMARK   45  A    between atoms: _115  and  _116
REMARK   46  A    between atoms: _116  and  _117
REMARK   47  A    between atoms: _117  and  _118
REMARK   48  A    between atoms: _127  and  _129
REMARK   49  A    between atoms: _129  and  _130
REMARK   50  A    between atoms: _129  and  _132
REMARK   51  A    between atoms: _132  and  _133
REMARK   52  A    between atoms: _136  and  _138
REMARK   53  A    between atoms: _138  and  _139
REMARK   54  A    between atoms: _138  and  _141
REMARK   55  A    between atoms: _141  and  _142
REMARK   56  A    between atoms: _145  and  _147
REMARK   57  A    between atoms: _147  and  _148
REMARK   58  A    between atoms: _147  and  _150
REMARK   59  A    between atoms: _150  and  _151
REMARK   60  A    between atoms: _151  and  _152
REMARK   61  A    between atoms: _157  and  _159
REMARK   62  A    between atoms: _159  and  _160
REMARK   63  A    between atoms: _159  and  _162
REMARK   64  A    between atoms: _162  and  _163
REMARK   65  A    between atoms: _168  and  _170
REMARK   66  A    between atoms: _170  and  _171
REMARK   67  A    between atoms: _174  and  _176
REMARK   68  A    between atoms: _176  and  _177
REMARK   69  A    between atoms: _179  and  _181
REMARK   70  A    between atoms: _181  and  _182
REMARK   71  A    between atoms: _181  and  _184
REMARK   72  A    between atoms: _184  and  _185
REMARK   73  A    between atoms: _188  and  _190
REMARK   74  A    between atoms: _190  and  _191
REMARK   75  A    between atoms: _190  and  _193
REMARK   76  A    between atoms: _193  and  _194
REMARK   77  A    between atoms: _194  and  _195
REMARK   78  A    between atoms: _195  and  _196
REMARK   79  A    between atoms: _205  and  _207
REMARK   80  A    between atoms: _207  and  _208
REMARK   81  A    between atoms: _207  and  _210
REMARK   82  A    between atoms: _213  and  _215
REMARK   83  A    between atoms: _215  and  _216
REMARK   84  A    between atoms: _215  and  _218
REMARK   85  A    between atoms: _218  and  _219
REMARK   86  A    between atoms: _224  and  _225
REMARK   87  A    between atoms: _227  and  _229
REMARK   88  A    between atoms: _229  and  _230
REMARK   89  A    between atoms: _229  and  _232
REMARK   90  A    between atoms: _232  and  _233
REMARK   91  A    between atoms: _235  and  _237
REMARK   92  A    between atoms: _237  and  _238
REMARK   93  A    between atoms: _237  and  _240
REMARK   94  A    between atoms: _240  and  _241
REMARK   95  A    between atoms: _246  and  _248
REMARK   96  A    between atoms: _248  and  _249
REMARK   97  A    between atoms: _248  and  _251
REMARK   98  A    between atoms: _251  and  _252
REMARK   99  A    between atoms: _252  and  _253
REMARK  100  A    between atoms: _256  and  _258
REMARK  101  A    between atoms: _258  and  _259
REMARK  102  A    between atoms: _258  and  _261
REMARK  103  A    between atoms: _261  and  _262
REMARK  104  A    between atoms: _267  and  _268
REMARK  105  A    between atoms: _270  and  _272
REMARK  106  A    between atoms: _272  and  _273
REMARK  107  A    between atoms: _276  and  _278
REMARK  108  A    between atoms: _278  and  _279
REMARK  109  A    between atoms: _278  and  _281
REMARK  110  A    between atoms: _281  and  _282
REMARK  111  A    between atoms: _286  and  _287
REMARK  112  A    between atoms: _292  and  _294
REMARK  113  A    between atoms: _294  and  _295
REMARK  114  A    between atoms: _294  and  _297
REMARK  115  A    between atoms: _297  and  _298
REMARK  116  A    between atoms: _301  and  _303
REMARK  117  A    between atoms: _303  and  _304
REMARK  118  A    between atoms: _303  and  _306
REMARK  119  A    between atoms: _306  and  _307
REMARK  120  A    between atoms: _307  and  _308
REMARK  121  A    between atoms: _313  and  _315
REMARK  122  A    between atoms: _315  and  _316
REMARK  123  A    between atoms: _315  and  _318
REMARK  124  A    between atoms: _318  and  _319
REMARK  125  A    between atoms: _322  and  _324
REMARK  126  A    between atoms: _324  and  _325
REMARK  127  A    between atoms: _324  and  _327
REMARK  128  A    between atoms: _327  and  _328
REMARK  129  A    between atoms: _331  and  _333
REMARK  130  A    between atoms: _333  and  _334
REMARK  131  A    between atoms: _333  and  _336
REMARK  132  A    between atoms: _336  and  _337
REMARK  133  A    between atoms: _343  and  _345
REMARK  134  A    between atoms: _345  and  _346
REMARK  135  A    between atoms: _348  and  _350
REMARK  136  A    between atoms: _350  and  _351
REMARK  137  A    between atoms: _350  and  _353
REMARK  138  A    between atoms: _353  and  _354
REMARK  139  A    between atoms: _357  and  _359
REMARK  140  A    between atoms: _359  and  _360
REMARK  141  A    between atoms: _363  and  _365
REMARK  142  A    between atoms: _365  and  _366
REMARK  143  A    between atoms: _365  and  _368
REMARK  144  A    between atoms: _368  and  _369
REMARK  145  A    between atoms: _379  and  _381
REMARK  146  A    between atoms: _381  and  _382
REMARK  147  A    between atoms: _381  and  _384
REMARK  148  A    between atoms: _384  and  _385
REMARK  149  A    between atoms: _387  and  _389
REMARK  150  A    between atoms: _389  and  _390
REMARK  151  A    between atoms: _389  and  _392
REMARK  152  A    between atoms: _392  and  _393
REMARK  153  A    between atoms: _398  and  _399
REMARK  154  A    between atoms: _401  and  _403
REMARK  155  A    between atoms: _403  and  _404
REMARK  156  A    between atoms: _403  and  _406
REMARK  157  A    between atoms: _406  and  _407
REMARK  158  A    between atoms: _412  and  _413
REMARK  159  A    between atoms: _415  and  _417
REMARK  160  A    between atoms: _417  and  _418
REMARK  161  A    between atoms: _417  and  _420
REMARK  162  A    between atoms: _420  and  _421
REMARK  163  A    between atoms: _424  and  _426
REMARK  164  A    between atoms: _426  and  _427
REMARK  165  A    between atoms: _429  and  _431
REMARK  166  A    between atoms: _431  and  _432
REMARK  167  A    between atoms: _431  and  _434
REMARK  168  A    between atoms: _434  and  _435
REMARK  169  A    between atoms: _440  and  _441
REMARK  170  A    between atoms: _443  and  _445
REMARK  171  A    between atoms: _445  and  _446
REMARK  172  A    between atoms: _445  and  _448
REMARK  173  A    between atoms: _448  and  _449
REMARK  174  A    between atoms: _452  and  _454
REMARK  175  A    between atoms: _454  and  _455
REMARK  176  A    between atoms: _454  and  _457
REMARK  177  A    between atoms: _457  and  _458
REMARK  178  A    between atoms: _458  and  _459
REMARK  179  A    between atoms: _459  and  _460
REMARK  180  A    between atoms: _469  and  _471
REMARK  181  A    between atoms: _471  and  _472
REMARK  182  A    between atoms: _471  and  _474
REMARK  183  A    between atoms: _474  and  _475
REMARK  184  A    between atoms: _478  and  _480
REMARK  185  A    between atoms: _480  and  _481
REMARK  186  A    between atoms: _480  and  _483
REMARK  187  A    between atoms: _483  and  _484
REMARK  188  A    between atoms: _487  and  _489
REMARK  189  A    between atoms: _489  and  _490
REMARK  190  A    between atoms: _489  and  _492
REMARK  191  A    between atoms: _492  and  _493
REMARK  192  A    between atoms: _493  and  _494
REMARK  193  A    between atoms: _494  and  _495
REMARK  194  A    between atoms: _504  and  _506
REMARK  195  A    between atoms: _506  and  _507
REMARK  196  A    between atoms: _506  and  _509
REMARK  197  A    between atoms: _509  and  _510
REMARK  198  A    between atoms: _513  and  _515
REMARK  199  A    between atoms: _515  and  _516
REMARK  200  A    between atoms: _515  and  _518
REMARK  201  A    between atoms: _518  and  _519
REMARK  202  A    between atoms: _519  and  _520
REMARK  203  A    between atoms: _520  and  _521
REMARK  204  A    between atoms: _521  and  _522
REMARK  205  A    between atoms: _526  and  _528
REMARK  206  A    between atoms: _528  and  _529
REMARK  207  A    between atoms: _528  and  _531
REMARK  208  A    between atoms: _531  and  _532
REMARK  209  A    between atoms: _532  and  _533
REMARK  210  A    between atoms: _538  and  _540
REMARK  211  A    between atoms: _540  and  _541
REMARK  212  A    between atoms: _540  and  _543
REMARK  213  A    between atoms: _543  and  _544
REMARK  214  A    between atoms: _549  and  _551
REMARK  215  A    between atoms: _551  and  _552
REMARK  216  A    between atoms: _555  and  _557
REMARK  217  A    between atoms: _557  and  _558
REMARK  218  A    between atoms: _557  and  _560
REMARK  219  A    between atoms: _560  and  _561
REMARK  220  A    between atoms: _564  and  _566
REMARK  221  A    between atoms: _566  and  _567
REMARK  222  A    between atoms: _566  and  _569
REMARK  223  A    between atoms: _569  and  _570
REMARK  224  A    between atoms: _570  and  _571
REMARK  225  A    between atoms: _571  and  _572
REMARK  226  A    between atoms: _581  and  _583
REMARK  227  A    between atoms: _583  and  _584
REMARK  228  A    between atoms: _583  and  _586
REMARK  229  A    between atoms: _589  and  _591
REMARK  230  A    between atoms: _591  and  _592
REMARK  231  A    between atoms: _591  and  _594
REMARK  232  A    between atoms: _594  and  _595
REMARK  233  A    between atoms: _600  and  _601
REMARK  234  A    between atoms: _603  and  _605
REMARK  235  A    between atoms: _605  and  _606
REMARK  236  A    between atoms: _605  and  _608
REMARK  237  A    between atoms: _608  and  _609
REMARK  238  A    between atoms: _611  and  _613
REMARK  239  A    between atoms: _613  and  _614
REMARK  240  A    between atoms: _613  and  _616
REMARK  241  A    between atoms: _616  and  _617
REMARK  242  A    between atoms: _622  and  _624
REMARK  243  A    between atoms: _624  and  _625
REMARK  244  A    between atoms: _624  and  _627
REMARK  245  A    between atoms: _627  and  _628
REMARK  246  A    between atoms: _628  and  _629
REMARK  247  A    between atoms: _632  and  _634
REMARK  248  A    between atoms: _634  and  _635
REMARK  249  A    between atoms: _634  and  _637
REMARK  250  A    between atoms: _637  and  _638
REMARK  251  A    between atoms: _643  and  _644
REMARK  252  A    between atoms: _646  and  _648
REMARK  253  A    between atoms: _648  and  _649
REMARK  254  A    between atoms: _652  and  _654
REMARK  255  A    between atoms: _654  and  _655
REMARK  256  A    between atoms: _654  and  _657
REMARK  257  A    between atoms: _657  and  _658
REMARK  258  A    between atoms: _662  and  _663
REMARK  259  A    between atoms: _668  and  _670
REMARK  260  A    between atoms: _670  and  _671
REMARK  261  A    between atoms: _670  and  _673
REMARK  262  A    between atoms: _673  and  _674
REMARK  263  A    between atoms: _677  and  _679
REMARK  264  A    between atoms: _679  and  _680
REMARK  265  A    between atoms: _679  and  _682
REMARK  266  A    between atoms: _682  and  _683
REMARK  267  A    between atoms: _683  and  _684
REMARK  268  A    between atoms: _689  and  _691
REMARK  269  A    between atoms: _691  and  _692
REMARK  270  A    between atoms: _691  and  _694
REMARK  271  A    between atoms: _694  and  _695
REMARK  272  A    between atoms: _698  and  _700
REMARK  273  A    between atoms: _700  and  _701
REMARK  274  A    between atoms: _700  and  _703
REMARK  275  A    between atoms: _703  and  _704
REMARK  276  A    between atoms: _707  and  _709
REMARK  277  A    between atoms: _709  and  _710
REMARK  278  A    between atoms: _709  and  _712
REMARK  279  A    between atoms: _712  and  _713
REMARK                            x       y       z     vdW  Elec       q    Type
REMARK                         _______ _______ _______ _____ _____    ______ ____
ROOT
ATOM      1  O   HOH     1     -53.071   0.110  74.403  0.00  0.00    +0.000 OA
ENDROOT
TORSDOF 0
REMARK  Name = ../refined-set-2016/4loh/4loh_pocket.pdb
REMARK  279 active torsions:
REMARK  status: ('A' for Active; 'I' for Inactive)
REMARK    1  A    between atoms: _1  and  _3
REMARK    2  A    between atoms: _3  and  _4
REMARK    3  A    between atoms: _6  and  _8
REMARK    4  A    between atoms: _8  and  _9
REMARK    5  A    between atoms: _8  and  _11
REMARK    6  A    between atoms: _11  and  _12
REMARK    7  A    between atoms: _15  and  _17
REMARK    8  A    between atoms: _17  and  _18
REMARK    9  A    between atoms: _21  and  _23
REMARK   10  A    between atoms: _23  and  _24
REMARK   11  A    between atoms: _23  and  _26
REMARK   12  A    between atoms: _26  and  _27
REMARK   13  A    between atoms: _37  and  _39
REMARK   14  A    between atoms: _39  and  _40
REMARK   15  A    between atoms: _39  and  _42
REMARK   16  A    between atoms: _42  and  _43
REMARK   17  A    between atoms: _45  and  _47
REMARK   18  A    between atoms: _47  and  _48
REMARK   19  A    between atoms: _47  and  _50
REMARK   20  A    between atoms: _50  and  _51
REMARK   21  A    between atoms: _56  and  _57
REMARK   22  A    between atoms: _59  and  _61
REMARK   23  A    between atoms: _61  and  _62
REMARK   24  A    between atoms: _61  and  _64
REMARK   25  A    between atoms: _64  and  _65
REMARK   26  A    between atoms: _70  and  _71
REMARK   27  A    between atoms: _73  and  _75
REMARK   28  A    between atoms: _75  and  _76
REMARK   29  A    between atoms: _75  and  _78
REMARK   30  A    between atoms: _78  and  _79
REMARK   31  A    between atoms: _82  and  _84
REMARK   32  A    between atoms: _84  and  _85
REMARK   33  A    between atoms: _87  and  _89
REMARK   34  A    between atoms: _89  and  _90
REMARK   35  A    between atoms: _89  and  _92
REMARK   36  A    between atoms: _92  and  _93
REMARK   37  A    between atoms: _98  and  _99
REMARK   38  A    between atoms: _101  and  _103
REMARK   39  A    between atoms: _103  and  _104
REMARK   40  A    between atoms: _103  and  _106
REMARK   41  A    between atoms: _106  and  _107
REMARK   42  A    between atoms: _110  and  _112
REMARK   43  A    between atoms: _112  and  _113
REMARK   44  A    between atoms: _112  and  _115
REMARK   45  A    between atoms: _115  and  _116
REMARK   46  A    between atoms: _116  and  _117
REMARK   47  A    between atoms: _117  and  _118
REMARK   48  A    between atoms: _127  and  _129
REMARK   49  A    between atoms: _129  and  _130
REMARK   50  A    between atoms: _129  and  _132
REMARK   51  A    between atoms: _132  and  _133
REMARK   52  A    between atoms: _136  and  _138
REMARK   53  A    between atoms: _138  and  _139
REMARK   54  A    between atoms: _138  and  _141
REMARK   55  A    between atoms: _141  and  _142
REMARK   56  A    between atoms: _145  and  _147
REMARK   57  A    between atoms: _147  and  _148
REMARK   58  A    between atoms: _147  and  _150
REMARK   59  A    between atoms: _150  and  _151
REMARK   60  A    between atoms: _151  and  _152
REMARK   61  A    between atoms: _157  and  _159
REMARK   62  A    between atoms: _159  and  _160
REMARK   63  A    between atoms: _159  and  _162
REMARK   64  A    between atoms: _162  and  _163
REMARK   65  A    between atoms: _168  and  _170
REMARK   66  A    between atoms: _170  and  _171
REMARK   67  A    between atoms: _174  and  _176
REMARK   68  A    between atoms: _176  and  _177
REMARK   69  A    between atoms: _179  and  _181
REMARK   70  A    between atoms: _181  and  _182
REMARK   71  A    between atoms: _181  and  _184
REMARK   72  A    between atoms: _184  and  _185
REMARK   73  A    between atoms: _188  and  _190
REMARK   74  A    between atoms: _190  and  _191
REMARK   75  A    between atoms: _190  and  _193
REMARK   76  A    between atoms: _193  and  _194
REMARK   77  A    between atoms: _194  and  _195
REMARK   78  A    between atoms: _195  and  _196
REMARK   79  A    between atoms: _205  and  _207
REMARK   80  A    between atoms: _207  and  _208
REMARK   81  A    between atoms: _207  and  _210
REMARK   82  A    between atoms: _213  and  _215
REMARK   83  A    between atoms: _215  and  _216
REMARK   84  A    between atoms: _215  and  _218
REMARK   85  A    between atoms: _218  and  _219
REMARK   86  A    between atoms: _224  and  _225
REMARK   87  A    between atoms: _227  and  _229
REMARK   88  A    between atoms: _229  and  _230
REMARK   89  A    between atoms: _229  and  _232
REMARK   90  A    between atoms: _232  and  _233
REMARK   91  A    between atoms: _235  and  _237
REMARK   92  A    between atoms: _237  and  _238
REMARK   93  A    between atoms: _237  and  _240
REMARK   94  A    between atoms: _240  and  _241
REMARK   95  A    between atoms: _246  and  _248
REMARK   96  A    between atoms: _248  and  _249
REMARK   97  A    between atoms: _248  and  _251
REMARK   98  A    between atoms: _251  and  _252
REMARK   99  A    between atoms: _252  and  _253
REMARK  100  A    between atoms: _256  and  _258
REMARK  101  A    between atoms: _258  and  _259
REMARK  102  A    between atoms: _258  and  _261
REMARK  103  A    between atoms: _261  and  _262
REMARK  104  A    between atoms: _267  and  _268
REMARK  105  A    between atoms: _270  and  _272
REMARK  106  A    between atoms: _272  and  _273
REMARK  107  A    between atoms: _276  and  _278
REMARK  108  A    between atoms: _278  and  _279
REMARK  109  A    between atoms: _278  and  _281
REMARK  110  A    between atoms: _281  and  _282
REMARK  111  A    between atoms: _286  and  _287
REMARK  112  A    between atoms: _292  and  _294
REMARK  113  A    between atoms: _294  and  _295
REMARK  114  A    between atoms: _294  and  _297
REMARK  115  A    between atoms: _297  and  _298
REMARK  116  A    between atoms: _301  and  _303
REMARK  117  A    between atoms: _303  and  _304
REMARK  118  A    between atoms: _303  and  _306
REMARK  119  A    between atoms: _306  and  _307
REMARK  120  A    between atoms: _307  and  _308
REMARK  121  A    between atoms: _313  and  _315
REMARK  122  A    between atoms: _315  and  _316
REMARK  123  A    between atoms: _315  and  _318
REMARK  124  A    between atoms: _318  and  _319
REMARK  125  A    between atoms: _322  and  _324
REMARK  126  A    between atoms: _324  and  _325
REMARK  127  A    between atoms: _324  and  _327
REMARK  128  A    between atoms: _327  and  _328
REMARK  129  A    between atoms: _331  and  _333
REMARK  130  A    between atoms: _333  and  _334
REMARK  131  A    between atoms: _333  and  _336
REMARK  132  A    between atoms: _336  and  _337
REMARK  133  A    between atoms: _343  and  _345
REMARK  134  A    between atoms: _345  and  _346
REMARK  135  A    between atoms: _348  and  _350
REMARK  136  A    between atoms: _350  and  _351
REMARK  137  A    between atoms: _350  and  _353
REMARK  138  A    between atoms: _353  and  _354
REMARK  139  A    between atoms: _357  and  _359
REMARK  140  A    between atoms: _359  and  _360
REMARK  141  A    between atoms: _363  and  _365
REMARK  142  A    between atoms: _365  and  _366
REMARK  143  A    between atoms: _365  and  _368
REMARK  144  A    between atoms: _368  and  _369
REMARK  145  A    between atoms: _379  and  _381
REMARK  146  A    between atoms: _381  and  _382
REMARK  147  A    between atoms: _381  and  _384
REMARK  148  A    between atoms: _384  and  _385
REMARK  149  A    between atoms: _387  and  _389
REMARK  150  A    between atoms: _389  and  _390
REMARK  151  A    between atoms: _389  and  _392
REMARK  152  A    between atoms: _392  and  _393
REMARK  153  A    between atoms: _398  and  _399
REMARK  154  A    between atoms: _401  and  _403
REMARK  155  A    between atoms: _403  and  _404
REMARK  156  A    between atoms: _403  and  _406
REMARK  157  A    between atoms: _406  and  _407
REMARK  158  A    between atoms: _412  and  _413
REMARK  159  A    between atoms: _415  and  _417
REMARK  160  A    between atoms: _417  and  _418
REMARK  161  A    between atoms: _417  and  _420
REMARK  162  A    between atoms: _420  and  _421
REMARK  163  A    between atoms: _424  and  _426
REMARK  164  A    between atoms: _426  and  _427
REMARK  165  A    between atoms: _429  and  _431
REMARK  166  A    between atoms: _431  and  _432
REMARK  167  A    between atoms: _431  and  _434
REMARK  168  A    between atoms: _434  and  _435
REMARK  169  A    between atoms: _440  and  _441
REMARK  170  A    between atoms: _443  and  _445
REMARK  171  A    between atoms: _445  and  _446
REMARK  172  A    between atoms: _445  and  _448
REMARK  173  A    between atoms: _448  and  _449
REMARK  174  A    between atoms: _452  and  _454
REMARK  175  A    between atoms: _454  and  _455
REMARK  176  A    between atoms: _454  and  _457
REMARK  177  A    between atoms: _457  and  _458
REMARK  178  A    between atoms: _458  and  _459
REMARK  179  A    between atoms: _459  and  _460
REMARK  180  A    between atoms: _469  and  _471
REMARK  181  A    between atoms: _471  and  _472
REMARK  182  A    between atoms: _471  and  _474
REMARK  183  A    between atoms: _474  and  _475
REMARK  184  A    between atoms: _478  and  _480
REMARK  185  A    between atoms: _480  and  _481
REMARK  186  A    between atoms: _480  and  _483
REMARK  187  A    between atoms: _483  and  _484
REMARK  188  A    between atoms: _487  and  _489
REMARK  189  A    between atoms: _489  and  _490
REMARK  190  A    between atoms: _489  and  _492
REMARK  191  A    between atoms: _492  and  _493
REMARK  192  A    between atoms: _493  and  _494
REMARK  193  A    between atoms: _494  and  _495
REMARK  194  A    between atoms: _504  and  _506
REMARK  195  A    between atoms: _506  and  _507
REMARK  196  A    between atoms: _506  and  _509
REMARK  197  A    between atoms: _509  and  _510
REMARK  198  A    between atoms: _513  and  _515
REMARK  199  A    between atoms: _515  and  _516
REMARK  200  A    between atoms: _515  and  _518
REMARK  201  A    between atoms: _518  and  _519
REMARK  202  A    between atoms: _519  and  _520
REMARK  203  A    between atoms: _520  and  _521
REMARK  204  A    between atoms: _521  and  _522
REMARK  205  A    between atoms: _526  and  _528
REMARK  206  A    between atoms: _528  and  _529
REMARK  207  A    between atoms: _528  and  _531
REMARK  208  A    between atoms: _531  and  _532
REMARK  209  A    between atoms: _532  and  _533
REMARK  210  A    between atoms: _538  and  _540
REMARK  211  A    between atoms: _540  and  _541
REMARK  212  A    between atoms: _540  and  _543
REMARK  213  A    between atoms: _543  and  _544
REMARK  214  A    between atoms: _549  and  _551
REMARK  215  A    between atoms: _551  and  _552
REMARK  216  A    between atoms: _555  and  _557
REMARK  217  A    between atoms: _557  and  _558
REMARK  218  A    between atoms: _557  and  _560
REMARK  219  A    between atoms: _560  and  _561
REMARK  220  A    between atoms: _564  and  _566
REMARK  221  A    between atoms: _566  and  _567
REMARK  222  A    between atoms: _566  and  _569
REMARK  223  A    between atoms: _569  and  _570
REMARK  224  A    between atoms: _570  and  _571
REMARK  225  A    between atoms: _571  and  _572
REMARK  226  A    between atoms: _581  and  _583
REMARK  227  A    between atoms: _583  and  _584
REMARK  228  A    between atoms: _583  and  _586
REMARK  229  A    between atoms: _589  and  _591
REMARK  230  A    between atoms: _591  and  _592
REMARK  231  A    between atoms: _591  and  _594
REMARK  232  A    between atoms: _594  and  _595
REMARK  233  A    between atoms: _600  and  _601
REMARK  234  A    between atoms: _603  and  _605
REMARK  235  A    between atoms: _605  and  _606
REMARK  236  A    between atoms: _605  and  _608
REMARK  237  A    between atoms: _608  and  _609
REMARK  238  A    between atoms: _611  and  _613
REMARK  239  A    between atoms: _613  and  _614
REMARK  240  A    between atoms: _613  and  _616
REMARK  241  A    between atoms: _616  and  _617
REMARK  242  A    between atoms: _622  and  _624
REMARK  243  A    between atoms: _624  and  _625
REMARK  244  A    between atoms: _624  and  _627
REMARK  245  A    between atoms: _627  and  _628
REMARK  246  A    between atoms: _628  and  _629
REMARK  247  A    between atoms: _632  and  _634
REMARK  248  A    between atoms: _634  and  _635
REMARK  249  A    between atoms: _634  and  _637
REMARK  250  A    between atoms: _637  and  _638
REMARK  251  A    between atoms: _643  and  _644
REMARK  252  A    between atoms: _646  and  _648
REMARK  253  A    between atoms: _648  and  _649
REMARK  254  A    between atoms: _652  and  _654
REMARK  255  A    between atoms: _654  and  _655
REMARK  256  A    between atoms: _654  and  _657
REMARK  257  A    between atoms: _657  and  _658
REMARK  258  A    between atoms: _662  and  _663
REMARK  259  A    between atoms: _668  and  _670
REMARK  260  A    between atoms: _670  and  _671
REMARK  261  A    between atoms: _670  and  _673
REMARK  262  A    between atoms: _673  and  _674
REMARK  263  A    between atoms: _677  and  _679
REMARK  264  A    between atoms: _679  and  _680
REMARK  265  A    between atoms: _679  and  _682
REMARK  266  A    between atoms: _682  and  _683
REMARK  267  A    between atoms: _683  and  _684
REMARK  268  A    between atoms: _689  and  _691
REMARK  269  A    between atoms: _691  and  _692
REMARK  270  A    between atoms: _691  and  _694
REMARK  271  A    between atoms: _694  and  _695
REMARK  272  A    between atoms: _698  and  _700
REMARK  273  A    between atoms: _700  and  _701
REMARK  274  A    between atoms: _700  and  _703
REMARK  275  A    between atoms: _703  and  _704
REMARK  276  A    between atoms: _707  and  _709
REMARK  277  A    between atoms: _709  and  _710
REMARK  278  A    between atoms: _709  and  _712
REMARK  279  A    between atoms: _712  and  _713
REMARK                            x       y       z     vdW  Elec       q    Type
REMARK                         _______ _______ _______ _____ _____    ______ ____
ROOT
ATOM      1  O   HOH     1     -55.845   0.900  59.138  0.00  0.00    +0.000 OA
ENDROOT
TORSDOF 0
REMARK  Name = ../refined-set-2016/4loh/4loh_pocket.pdb
REMARK  279 active torsions:
REMARK  status: ('A' for Active; 'I' for Inactive)
REMARK    1  A    between atoms: _1  and  _3
REMARK    2  A    between atoms: _3  and  _4
REMARK    3  A    between atoms: _6  and  _8
REMARK    4  A    between atoms: _8  and  _9
REMARK    5  A    between atoms: _8  and  _11
REMARK    6  A    between atoms: _11  and  _12
REMARK    7  A    between atoms: _15  and  _17
REMARK    8  A    between atoms: _17  and  _18
REMARK    9  A    between atoms: _21  and  _23
REMARK   10  A    between atoms: _23  and  _24
REMARK   11  A    between atoms: _23  and  _26
REMARK   12  A    between atoms: _26  and  _27
REMARK   13  A    between atoms: _37  and  _39
REMARK   14  A    between atoms: _39  and  _40
REMARK   15  A    between atoms: _39  and  _42
REMARK   16  A    between atoms: _42  and  _43
REMARK   17  A    between atoms: _45  and  _47
REMARK   18  A    between atoms: _47  and  _48
REMARK   19  A    between atoms: _47  and  _50
REMARK   20  A    between atoms: _50  and  _51
REMARK   21  A    between atoms: _56  and  _57
REMARK   22  A    between atoms: _59  and  _61
REMARK   23  A    between atoms: _61  and  _62
REMARK   24  A    between atoms: _61  and  _64
REMARK   25  A    between atoms: _64  and  _65
REMARK   26  A    between atoms: _70  and  _71
REMARK   27  A    between atoms: _73  and  _75
REMARK   28  A    between atoms: _75  and  _76
REMARK   29  A    between atoms: _75  and  _78
REMARK   30  A    between atoms: _78  and  _79
REMARK   31  A    between atoms: _82  and  _84
REMARK   32  A    between atoms: _84  and  _85
REMARK   33  A    between atoms: _87  and  _89
REMARK   34  A    between atoms: _89  and  _90
REMARK   35  A    between atoms: _89  and  _92
REMARK   36  A    between atoms: _92  and  _93
REMARK   37  A    between atoms: _98  and  _99
REMARK   38  A    between atoms: _101  and  _103
REMARK   39  A    between atoms: _103  and  _104
REMARK   40  A    between atoms: _103  and  _106
REMARK   41  A    between atoms: _106  and  _107
REMARK   42  A    between atoms: _110  and  _112
REMARK   43  A    between atoms: _112  and  _113
REMARK   44  A    between atoms: _112  and  _115
REMARK   45  A    between atoms: _115  and  _116
REMARK   46  A    between atoms: _116  and  _117
REMARK   47  A    between atoms: _117  and  _118
REMARK   48  A    between atoms: _127  and  _129
REMARK   49  A    between atoms: _129  and  _130
REMARK   50  A    between atoms: _129  and  _132
REMARK   51  A    between atoms: _132  and  _133
REMARK   52  A    between atoms: _136  and  _138
REMARK   53  A    between atoms: _138  and  _139
REMARK   54  A    between atoms: _138  and  _141
REMARK   55  A    between atoms: _141  and  _142
REMARK   56  A    between atoms: _145  and  _147
REMARK   57  A    between atoms: _147  and  _148
REMARK   58  A    between atoms: _147  and  _150
REMARK   59  A    between atoms: _150  and  _151
REMARK   60  A    between atoms: _151  and  _152
REMARK   61  A    between atoms: _157  and  _159
REMARK   62  A    between atoms: _159  and  _160
REMARK   63  A    between atoms: _159  and  _162
REMARK   64  A    between atoms: _162  and  _163
REMARK   65  A    between atoms: _168  and  _170
REMARK   66  A    between atoms: _170  and  _171
REMARK   67  A    between atoms: _174  and  _176
REMARK   68  A    between atoms: _176  and  _177
REMARK   69  A    between atoms: _179  and  _181
REMARK   70  A    between atoms: _181  and  _182
REMARK   71  A    between atoms: _181  and  _184
REMARK   72  A    between atoms: _184  and  _185
REMARK   73  A    between atoms: _188  and  _190
REMARK   74  A    between atoms: _190  and  _191
REMARK   75  A    between atoms: _190  and  _193
REMARK   76  A    between atoms: _193  and  _194
REMARK   77  A    between atoms: _194  and  _195
REMARK   78  A    between atoms: _195  and  _196
REMARK   79  A    between atoms: _205  and  _207
REMARK   80  A    between atoms: _207  and  _208
REMARK   81  A    between atoms: _207  and  _210
REMARK   82  A    between atoms: _213  and  _215
REMARK   83  A    between atoms: _215  and  _216
REMARK   84  A    between atoms: _215  and  _218
REMARK   85  A    between atoms: _218  and  _219
REMARK   86  A    between atoms: _224  and  _225
REMARK   87  A    between atoms: _227  and  _229
REMARK   88  A    between atoms: _229  and  _230
REMARK   89  A    between atoms: _229  and  _232
REMARK   90  A    between atoms: _232  and  _233
REMARK   91  A    between atoms: _235  and  _237
REMARK   92  A    between atoms: _237  and  _238
REMARK   93  A    between atoms: _237  and  _240
REMARK   94  A    between atoms: _240  and  _241
REMARK   95  A    between atoms: _246  and  _248
REMARK   96  A    between atoms: _248  and  _249
REMARK   97  A    between atoms: _248  and  _251
REMARK   98  A    between atoms: _251  and  _252
REMARK   99  A    between atoms: _252  and  _253
REMARK  100  A    between atoms: _256  and  _258
REMARK  101  A    between atoms: _258  and  _259
REMARK  102  A    between atoms: _258  and  _261
REMARK  103  A    between atoms: _261  and  _262
REMARK  104  A    between atoms: _267  and  _268
REMARK  105  A    between atoms: _270  and  _272
REMARK  106  A    between atoms: _272  and  _273
REMARK  107  A    between atoms: _276  and  _278
REMARK  108  A    between atoms: _278  and  _279
REMARK  109  A    between atoms: _278  and  _281
REMARK  110  A    between atoms: _281  and  _282
REMARK  111  A    between atoms: _286  and  _287
REMARK  112  A    between atoms: _292  and  _294
REMARK  113  A    between atoms: _294  and  _295
REMARK  114  A    between atoms: _294  and  _297
REMARK  115  A    between atoms: _297  and  _298
REMARK  116  A    between atoms: _301  and  _303
REMARK  117  A    between atoms: _303  and  _304
REMARK  118  A    between atoms: _303  and  _306
REMARK  119  A    between atoms: _306  and  _307
REMARK  120  A    between atoms: _307  and  _308
REMARK  121  A    between atoms: _313  and  _315
REMARK  122  A    between atoms: _315  and  _316
REMARK  123  A    between atoms: _315  and  _318
REMARK  124  A    between atoms: _318  and  _319
REMARK  125  A    between atoms: _322  and  _324
REMARK  126  A    between atoms: _324  and  _325
REMARK  127  A    between atoms: _324  and  _327
REMARK  128  A    between atoms: _327  and  _328
REMARK  129  A    between atoms: _331  and  _333
REMARK  130  A    between atoms: _333  and  _334
REMARK  131  A    between atoms: _333  and  _336
REMARK  132  A    between atoms: _336  and  _337
REMARK  133  A    between atoms: _343  and  _345
REMARK  134  A    between atoms: _345  and  _346
REMARK  135  A    between atoms: _348  and  _350
REMARK  136  A    between atoms: _350  and  _351
REMARK  137  A    between atoms: _350  and  _353
REMARK  138  A    between atoms: _353  and  _354
REMARK  139  A    between atoms: _357  and  _359
REMARK  140  A    between atoms: _359  and  _360
REMARK  141  A    between atoms: _363  and  _365
REMARK  142  A    between atoms: _365  and  _366
REMARK  143  A    between atoms: _365  and  _368
REMARK  144  A    between atoms: _368  and  _369
REMARK  145  A    between atoms: _379  and  _381
REMARK  146  A    between atoms: _381  and  _382
REMARK  147  A    between atoms: _381  and  _384
REMARK  148  A    between atoms: _384  and  _385
REMARK  149  A    between atoms: _387  and  _389
REMARK  150  A    between atoms: _389  and  _390
REMARK  151  A    between atoms: _389  and  _392
REMARK  152  A    between atoms: _392  and  _393
REMARK  153  A    between atoms: _398  and  _399
REMARK  154  A    between atoms: _401  and  _403
REMARK  155  A    between atoms: _403  and  _404
REMARK  156  A    between atoms: _403  and  _406
REMARK  157  A    between atoms: _406  and  _407
REMARK  158  A    between atoms: _412  and  _413
REMARK  159  A    between atoms: _415  and  _417
REMARK  160  A    between atoms: _417  and  _418
REMARK  161  A    between atoms: _417  and  _420
REMARK  162  A    between atoms: _420  and  _421
REMARK  163  A    between atoms: _424  and  _426
REMARK  164  A    between atoms: _426  and  _427
REMARK  165  A    between atoms: _429  and  _431
REMARK  166  A    between atoms: _431  and  _432
REMARK  167  A    between atoms: _431  and  _434
REMARK  168  A    between atoms: _434  and  _435
REMARK  169  A    between atoms: _440  and  _441
REMARK  170  A    between atoms: _443  and  _445
REMARK  171  A    between atoms: _445  and  _446
REMARK  172  A    between atoms: _445  and  _448
REMARK  173  A    between atoms: _448  and  _449
REMARK  174  A    between atoms: _452  and  _454
REMARK  175  A    between atoms: _454  and  _455
REMARK  176  A    between atoms: _454  and  _457
REMARK  177  A    between atoms: _457  and  _458
REMARK  178  A    between atoms: _458  and  _459
REMARK  179  A    between atoms: _459  and  _460
REMARK  180  A    between atoms: _469  and  _471
REMARK  181  A    between atoms: _471  and  _472
REMARK  182  A    between atoms: _471  and  _474
REMARK  183  A    between atoms: _474  and  _475
REMARK  184  A    between atoms: _478  and  _480
REMARK  185  A    between atoms: _480  and  _481
REMARK  186  A    between atoms: _480  and  _483
REMARK  187  A    between atoms: _483  and  _484
REMARK  188  A    between atoms: _487  and  _489
REMARK  189  A    between atoms: _489  and  _490
REMARK  190  A    between atoms: _489  and  _492
REMARK  191  A    between atoms: _492  and  _493
REMARK  192  A    between atoms: _493  and  _494
REMARK  193  A    between atoms: _494  and  _495
REMARK  194  A    between atoms: _504  and  _506
REMARK  195  A    between atoms: _506  and  _507
REMARK  196  A    between atoms: _506  and  _509
REMARK  197  A    between atoms: _509  and  _510
REMARK  198  A    between atoms: _513  and  _515
REMARK  199  A    between atoms: _515  and  _516
REMARK  200  A    between atoms: _515  and  _518
REMARK  201  A    between atoms: _518  and  _519
REMARK  202  A    between atoms: _519  and  _520
REMARK  203  A    between atoms: _520  and  _521
REMARK  204  A    between atoms: _521  and  _522
REMARK  205  A    between atoms: _526  and  _528
REMARK  206  A    between atoms: _528  and  _529
REMARK  207  A    between atoms: _528  and  _531
REMARK  208  A    between atoms: _531  and  _532
REMARK  209  A    between atoms: _532  and  _533
REMARK  210  A    between atoms: _538  and  _540
REMARK  211  A    between atoms: _540  and  _541
REMARK  212  A    between atoms: _540  and  _543
REMARK  213  A    between atoms: _543  and  _544
REMARK  214  A    between atoms: _549  and  _551
REMARK  215  A    between atoms: _551  and  _552
REMARK  216  A    between atoms: _555  and  _557
REMARK  217  A    between atoms: _557  and  _558
REMARK  218  A    between atoms: _557  and  _560
REMARK  219  A    between atoms: _560  and  _561
REMARK  220  A    between atoms: _564  and  _566
REMARK  221  A    between atoms: _566  and  _567
REMARK  222  A    between atoms: _566  and  _569
REMARK  223  A    between atoms: _569  and  _570
REMARK  224  A    between atoms: _570  and  _571
REMARK  225  A    between atoms: _571  and  _572
REMARK  226  A    between atoms: _581  and  _583
REMARK  227  A    between atoms: _583  and  _584
REMARK  228  A    between atoms: _583  and  _586
REMARK  229  A    between atoms: _589  and  _591
REMARK  230  A    between atoms: _591  and  _592
REMARK  231  A    between atoms: _591  and  _594
REMARK  232  A    between atoms: _594  and  _595
REMARK  233  A    between atoms: _600  and  _601
REMARK  234  A    between atoms: _603  and  _605
REMARK  235  A    between atoms: _605  and  _606
REMARK  236  A    between atoms: _605  and  _608
REMARK  237  A    between atoms: _608  and  _609
REMARK  238  A    between atoms: _611  and  _613
REMARK  239  A    between atoms: _613  and  _614
REMARK  240  A    between atoms: _613  and  _616
REMARK  241  A    between atoms: _616  and  _617
REMARK  242  A    between atoms: _622  and  _624
REMARK  243  A    between atoms: _624  and  _625
REMARK  244  A    between atoms: _624  and  _627
REMARK  245  A    between atoms: _627  and  _628
REMARK  246  A    between atoms: _628  and  _629
REMARK  247  A    between atoms: _632  and  _634
REMARK  248  A    between atoms: _634  and  _635
REMARK  249  A    between atoms: _634  and  _637
REMARK  250  A    between atoms: _637  and  _638
REMARK  251  A    between atoms: _643  and  _644
REMARK  252  A    between atoms: _646  and  _648
REMARK  253  A    between atoms: _648  and  _649
REMARK  254  A    between atoms: _652  and  _654
REMARK  255  A    between atoms: _654  and  _655
REMARK  256  A    between atoms: _654  and  _657
REMARK  257  A    between atoms: _657  and  _658
REMARK  258  A    between atoms: _662  and  _663
REMARK  259  A    between atoms: _668  and  _670
REMARK  260  A    between atoms: _670  and  _671
REMARK  261  A    between atoms: _670  and  _673
REMARK  262  A    between atoms: _673  and  _674
REMARK  263  A    between atoms: _677  and  _679
REMARK  264  A    between atoms: _679  and  _680
REMARK  265  A    between atoms: _679  and  _682
REMARK  266  A    between atoms: _682  and  _683
REMARK  267  A    between atoms: _683  and  _684
REMARK  268  A    between atoms: _689  and  _691
REMARK  269  A    between atoms: _691  and  _692
REMARK  270  A    between atoms: _691  and  _694
REMARK  271  A    between atoms: _694  and  _695
REMARK  272  A    between atoms: _698  and  _700
REMARK  273  A    between atoms: _700  and  _701
REMARK  274  A    between atoms: _700  and  _703
REMARK  275  A    between atoms: _703  and  _704
REMARK  276  A    between atoms: _707  and  _709
REMARK  277  A    between atoms: _709  and  _710
REMARK  278  A    between atoms: _709  and  _712
REMARK  279  A    between atoms: _712  and  _713
REMARK                            x       y       z     vdW  Elec       q    Type
REMARK                         _______ _______ _______ _____ _____    ______ ____
ROOT
ATOM      1  O   HOH     1     -55.782  13.324  69.910  0.00  0.00    +0.000 OA
ENDROOT
TORSDOF 0
REMARK  Name = ../refined-set-2016/4loh/4loh_pocket.pdb
REMARK  279 active torsions:
REMARK  status: ('A' for Active; 'I' for Inactive)
REMARK    1  A    between atoms: _1  and  _3
REMARK    2  A    between atoms: _3  and  _4
REMARK    3  A    between atoms: _6  and  _8
REMARK    4  A    between atoms: _8  and  _9
REMARK    5  A    between atoms: _8  and  _11
REMARK    6  A    between atoms: _11  and  _12
REMARK    7  A    between atoms: _15  and  _17
REMARK    8  A    between atoms: _17  and  _18
REMARK    9  A    between atoms: _21  and  _23
REMARK   10  A    between atoms: _23  and  _24
REMARK   11  A    between atoms: _23  and  _26
REMARK   12  A    between atoms: _26  and  _27
REMARK   13  A    between atoms: _37  and  _39
REMARK   14  A    between atoms: _39  and  _40
REMARK   15  A    between atoms: _39  and  _42
REMARK   16  A    between atoms: _42  and  _43
REMARK   17  A    between atoms: _45  and  _47
REMARK   18  A    between atoms: _47  and  _48
REMARK   19  A    between atoms: _47  and  _50
REMARK   20  A    between atoms: _50  and  _51
REMARK   21  A    between atoms: _56  and  _57
REMARK   22  A    between atoms: _59  and  _61
REMARK   23  A    between atoms: _61  and  _62
REMARK   24  A    between atoms: _61  and  _64
REMARK   25  A    between atoms: _64  and  _65
REMARK   26  A    between atoms: _70  and  _71
REMARK   27  A    between atoms: _73  and  _75
REMARK   28  A    between atoms: _75  and  _76
REMARK   29  A    between atoms: _75  and  _78
REMARK   30  A    between atoms: _78  and  _79
REMARK   31  A    between atoms: _82  and  _84
REMARK   32  A    between atoms: _84  and  _85
REMARK   33  A    between atoms: _87  and  _89
REMARK   34  A    between atoms: _89  and  _90
REMARK   35  A    between atoms: _89  and  _92
REMARK   36  A    between atoms: _92  and  _93
REMARK   37  A    between atoms: _98  and  _99
REMARK   38  A    between atoms: _101  and  _103
REMARK   39  A    between atoms: _103  and  _104
REMARK   40  A    between atoms: _103  and  _106
REMARK   41  A    between atoms: _106  and  _107
REMARK   42  A    between atoms: _110  and  _112
REMARK   43  A    between atoms: _112  and  _113
REMARK   44  A    between atoms: _112  and  _115
REMARK   45  A    between atoms: _115  and  _116
REMARK   46  A    between atoms: _116  and  _117
REMARK   47  A    between atoms: _117  and  _118
REMARK   48  A    between atoms: _127  and  _129
REMARK   49  A    between atoms: _129  and  _130
REMARK   50  A    between atoms: _129  and  _132
REMARK   51  A    between atoms: _132  and  _133
REMARK   52  A    between atoms: _136  and  _138
REMARK   53  A    between atoms: _138  and  _139
REMARK   54  A    between atoms: _138  and  _141
REMARK   55  A    between atoms: _141  and  _142
REMARK   56  A    between atoms: _145  and  _147
REMARK   57  A    between atoms: _147  and  _148
REMARK   58  A    between atoms: _147  and  _150
REMARK   59  A    between atoms: _150  and  _151
REMARK   60  A    between atoms: _151  and  _152
REMARK   61  A    between atoms: _157  and  _159
REMARK   62  A    between atoms: _159  and  _160
REMARK   63  A    between atoms: _159  and  _162
REMARK   64  A    between atoms: _162  and  _163
REMARK   65  A    between atoms: _168  and  _170
REMARK   66  A    between atoms: _170  and  _171
REMARK   67  A    between atoms: _174  and  _176
REMARK   68  A    between atoms: _176  and  _177
REMARK   69  A    between atoms: _179  and  _181
REMARK   70  A    between atoms: _181  and  _182
REMARK   71  A    between atoms: _181  and  _184
REMARK   72  A    between atoms: _184  and  _185
REMARK   73  A    between atoms: _188  and  _190
REMARK   74  A    between atoms: _190  and  _191
REMARK   75  A    between atoms: _190  and  _193
REMARK   76  A    between atoms: _193  and  _194
REMARK   77  A    between atoms: _194  and  _195
REMARK   78  A    between atoms: _195  and  _196
REMARK   79  A    between atoms: _205  and  _207
REMARK   80  A    between atoms: _207  and  _208
REMARK   81  A    between atoms: _207  and  _210
REMARK   82  A    between atoms: _213  and  _215
REMARK   83  A    between atoms: _215  and  _216
REMARK   84  A    between atoms: _215  and  _218
REMARK   85  A    between atoms: _218  and  _219
REMARK   86  A    between atoms: _224  and  _225
REMARK   87  A    between atoms: _227  and  _229
REMARK   88  A    between atoms: _229  and  _230
REMARK   89  A    between atoms: _229  and  _232
REMARK   90  A    between atoms: _232  and  _233
REMARK   91  A    between atoms: _235  and  _237
REMARK   92  A    between atoms: _237  and  _238
REMARK   93  A    between atoms: _237  and  _240
REMARK   94  A    between atoms: _240  and  _241
REMARK   95  A    between atoms: _246  and  _248
REMARK   96  A    between atoms: _248  and  _249
REMARK   97  A    between atoms: _248  and  _251
REMARK   98  A    between atoms: _251  and  _252
REMARK   99  A    between atoms: _252  and  _253
REMARK  100  A    between atoms: _256  and  _258
REMARK  101  A    between atoms: _258  and  _259
REMARK  102  A    between atoms: _258  and  _261
REMARK  103  A    between atoms: _261  and  _262
REMARK  104  A    between atoms: _267  and  _268
REMARK  105  A    between atoms: _270  and  _272
REMARK  106  A    between atoms: _272  and  _273
REMARK  107  A    between atoms: _276  and  _278
REMARK  108  A    between atoms: _278  and  _279
REMARK  109  A    between atoms: _278  and  _281
REMARK  110  A    between atoms: _281  and  _282
REMARK  111  A    between atoms: _286  and  _287
REMARK  112  A    between atoms: _292  and  _294
REMARK  113  A    between atoms: _294  and  _295
REMARK  114  A    between atoms: _294  and  _297
REMARK  115  A    between atoms: _297  and  _298
REMARK  116  A    between atoms: _301  and  _303
REMARK  117  A    between atoms: _303  and  _304
REMARK  118  A    between atoms: _303  and  _306
REMARK  119  A    between atoms: _306  and  _307
REMARK  120  A    between atoms: _307  and  _308
REMARK  121  A    between atoms: _313  and  _315
REMARK  122  A    between atoms: _315  and  _316
REMARK  123  A    between atoms: _315  and  _318
REMARK  124  A    between atoms: _318  and  _319
REMARK  125  A    between atoms: _322  and  _324
REMARK  126  A    between atoms: _324  and  _325
REMARK  127  A    between atoms: _324  and  _327
REMARK  128  A    between atoms: _327  and  _328
REMARK  129  A    between atoms: _331  and  _333
REMARK  130  A    between atoms: _333  and  _334
REMARK  131  A    between atoms: _333  and  _336
REMARK  132  A    between atoms: _336  and  _337
REMARK  133  A    between atoms: _343  and  _345
REMARK  134  A    between atoms: _345  and  _346
REMARK  135  A    between atoms: _348  and  _350
REMARK  136  A    between atoms: _350  and  _351
REMARK  137  A    between atoms: _350  and  _353
REMARK  138  A    between atoms: _353  and  _354
REMARK  139  A    between atoms: _357  and  _359
REMARK  140  A    between atoms: _359  and  _360
REMARK  141  A    between atoms: _363  and  _365
REMARK  142  A    between atoms: _365  and  _366
REMARK  143  A    between atoms: _365  and  _368
REMARK  144  A    between atoms: _368  and  _369
REMARK  145  A    between atoms: _379  and  _381
REMARK  146  A    between atoms: _381  and  _382
REMARK  147  A    between atoms: _381  and  _384
REMARK  148  A    between atoms: _384  and  _385
REMARK  149  A    between atoms: _387  and  _389
REMARK  150  A    between atoms: _389  and  _390
REMARK  151  A    between atoms: _389  and  _392
REMARK  152  A    between atoms: _392  and  _393
REMARK  153  A    between atoms: _398  and  _399
REMARK  154  A    between atoms: _401  and  _403
REMARK  155  A    between atoms: _403  and  _404
REMARK  156  A    between atoms: _403  and  _406
REMARK  157  A    between atoms: _406  and  _407
REMARK  158  A    between atoms: _412  and  _413
REMARK  159  A    between atoms: _415  and  _417
REMARK  160  A    between atoms: _417  and  _418
REMARK  161  A    between atoms: _417  and  _420
REMARK  162  A    between atoms: _420  and  _421
REMARK  163  A    between atoms: _424  and  _426
REMARK  164  A    between atoms: _426  and  _427
REMARK  165  A    between atoms: _429  and  _431
REMARK  166  A    between atoms: _431  and  _432
REMARK  167  A    between atoms: _431  and  _434
REMARK  168  A    between atoms: _434  and  _435
REMARK  169  A    between atoms: _440  and  _441
REMARK  170  A    between atoms: _443  and  _445
REMARK  171  A    between atoms: _445  and  _446
REMARK  172  A    between atoms: _445  and  _448
REMARK  173  A    between atoms: _448  and  _449
REMARK  174  A    between atoms: _452  and  _454
REMARK  175  A    between atoms: _454  and  _455
REMARK  176  A    between atoms: _454  and  _457
REMARK  177  A    between atoms: _457  and  _458
REMARK  178  A    between atoms: _458  and  _459
REMARK  179  A    between atoms: _459  and  _460
REMARK  180  A    between atoms: _469  and  _471
REMARK  181  A    between atoms: _471  and  _472
REMARK  182  A    between atoms: _471  and  _474
REMARK  183  A    between atoms: _474  and  _475
REMARK  184  A    between atoms: _478  and  _480
REMARK  185  A    between atoms: _480  and  _481
REMARK  186  A    between atoms: _480  and  _483
REMARK  187  A    between atoms: _483  and  _484
REMARK  188  A    between atoms: _487  and  _489
REMARK  189  A    between atoms: _489  and  _490
REMARK  190  A    between atoms: _489  and  _492
REMARK  191  A    between atoms: _492  and  _493
REMARK  192  A    between atoms: _493  and  _494
REMARK  193  A    between atoms: _494  and  _495
REMARK  194  A    between atoms: _504  and  _506
REMARK  195  A    between atoms: _506  and  _507
REMARK  196  A    between atoms: _506  and  _509
REMARK  197  A    between atoms: _509  and  _510
REMARK  198  A    between atoms: _513  and  _515
REMARK  199  A    between atoms: _515  and  _516
REMARK  200  A    between atoms: _515  and  _518
REMARK  201  A    between atoms: _518  and  _519
REMARK  202  A    between atoms: _519  and  _520
REMARK  203  A    between atoms: _520  and  _521
REMARK  204  A    between atoms: _521  and  _522
REMARK  205  A    between atoms: _526  and  _528
REMARK  206  A    between atoms: _528  and  _529
REMARK  207  A    between atoms: _528  and  _531
REMARK  208  A    between atoms: _531  and  _532
REMARK  209  A    between atoms: _532  and  _533
REMARK  210  A    between atoms: _538  and  _540
REMARK  211  A    between atoms: _540  and  _541
REMARK  212  A    between atoms: _540  and  _543
REMARK  213  A    between atoms: _543  and  _544
REMARK  214  A    between atoms: _549  and  _551
REMARK  215  A    between atoms: _551  and  _552
REMARK  216  A    between atoms: _555  and  _557
REMARK  217  A    between atoms: _557  and  _558
REMARK  218  A    between atoms: _557  and  _560
REMARK  219  A    between atoms: _560  and  _561
REMARK  220  A    between atoms: _564  and  _566
REMARK  221  A    between atoms: _566  and  _567
REMARK  222  A    between atoms: _566  and  _569
REMARK  223  A    between atoms: _569  and  _570
REMARK  224  A    between atoms: _570  and  _571
REMARK  225  A    between atoms: _571  and  _572
REMARK  226  A    between atoms: _581  and  _583
REMARK  227  A    between atoms: _583  and  _584
REMARK  228  A    between atoms: _583  and  _586
REMARK  229  A    between atoms: _589  and  _591
REMARK  230  A    between atoms: _591  and  _592
REMARK  231  A    between atoms: _591  and  _594
REMARK  232  A    between atoms: _594  and  _595
REMARK  233  A    between atoms: _600  and  _601
REMARK  234  A    between atoms: _603  and  _605
REMARK  235  A    between atoms: _605  and  _606
REMARK  236  A    between atoms: _605  and  _608
REMARK  237  A    between atoms: _608  and  _609
REMARK  238  A    between atoms: _611  and  _613
REMARK  239  A    between atoms: _613  and  _614
REMARK  240  A    between atoms: _613  and  _616
REMARK  241  A    between atoms: _616  and  _617
REMARK  242  A    between atoms: _622  and  _624
REMARK  243  A    between atoms: _624  and  _625
REMARK  244  A    between atoms: _624  and  _627
REMARK  245  A    between atoms: _627  and  _628
REMARK  246  A    between atoms: _628  and  _629
REMARK  247  A    between atoms: _632  and  _634
REMARK  248  A    between atoms: _634  and  _635
REMARK  249  A    between atoms: _634  and  _637
REMARK  250  A    between atoms: _637  and  _638
REMARK  251  A    between atoms: _643  and  _644
REMARK  252  A    between atoms: _646  and  _648
REMARK  253  A    between atoms: _648  and  _649
REMARK  254  A    between atoms: _652  and  _654
REMARK  255  A    between atoms: _654  and  _655
REMARK  256  A    between atoms: _654  and  _657
REMARK  257  A    between atoms: _657  and  _658
REMARK  258  A    between atoms: _662  and  _663
REMARK  259  A    between atoms: _668  and  _670
REMARK  260  A    between atoms: _670  and  _671
REMARK  261  A    between atoms: _670  and  _673
REMARK  262  A    between atoms: _673  and  _674
REMARK  263  A    between atoms: _677  and  _679
REMARK  264  A    between atoms: _679  and  _680
REMARK  265  A    between atoms: _679  and  _682
REMARK  266  A    between atoms: _682  and  _683
REMARK  267  A    between atoms: _683  and  _684
REMARK  268  A    between atoms: _689  and  _691
REMARK  269  A    between atoms: _691  and  _692
REMARK  270  A    between atoms: _691  and  _694
REMARK  271  A    between atoms: _694  and  _695
REMARK  272  A    between atoms: _698  and  _700
REMARK  273  A    between atoms: _700  and  _701
REMARK  274  A    between atoms: _700  and  _703
REMARK  275  A    between atoms: _703  and  _704
REMARK  276  A    between atoms: _707  and  _709
REMARK  277  A    between atoms: _709  and  _710
REMARK  278  A    between atoms: _709  and  _712
REMARK  279  A    between atoms: _712  and  _713
REMARK                            x       y       z     vdW  Elec       q    Type
REMARK                         _______ _______ _______ _____ _____    ______ ____
ROOT
ATOM      1  O   HOH     1     -55.691   6.676  63.940  0.00  0.00    +0.000 OA
ENDROOT
TORSDOF 0
REMARK  Name = ../refined-set-2016/4loh/4loh_pocket.pdb
REMARK  279 active torsions:
REMARK  status: ('A' for Active; 'I' for Inactive)
REMARK    1  A    between atoms: _1  and  _3
REMARK    2  A    between atoms: _3  and  _4
REMARK    3  A    between atoms: _6  and  _8
REMARK    4  A    between atoms: _8  and  _9
REMARK    5  A    between atoms: _8  and  _11
REMARK    6  A    between atoms: _11  and  _12
REMARK    7  A    between atoms: _15  and  _17
REMARK    8  A    between atoms: _17  and  _18
REMARK    9  A    between atoms: _21  and  _23
REMARK   10  A    between atoms: _23  and  _24
REMARK   11  A    between atoms: _23  and  _26
REMARK   12  A    between atoms: _26  and  _27
REMARK   13  A    between atoms: _37  and  _39
REMARK   14  A    between atoms: _39  and  _40
REMARK   15  A    between atoms: _39  and  _42
REMARK   16  A    between atoms: _42  and  _43
REMARK   17  A    between atoms: _45  and  _47
REMARK   18  A    between atoms: _47  and  _48
REMARK   19  A    between atoms: _47  and  _50
REMARK   20  A    between atoms: _50  and  _51
REMARK   21  A    between atoms: _56  and  _57
REMARK   22  A    between atoms: _59  and  _61
REMARK   23  A    between atoms: _61  and  _62
REMARK   24  A    between atoms: _61  and  _64
REMARK   25  A    between atoms: _64  and  _65
REMARK   26  A    between atoms: _70  and  _71
REMARK   27  A    between atoms: _73  and  _75
REMARK   28  A    between atoms: _75  and  _76
REMARK   29  A    between atoms: _75  and  _78
REMARK   30  A    between atoms: _78  and  _79
REMARK   31  A    between atoms: _82  and  _84
REMARK   32  A    between atoms: _84  and  _85
REMARK   33  A    between atoms: _87  and  _89
REMARK   34  A    between atoms: _89  and  _90
REMARK   35  A    between atoms: _89  and  _92
REMARK   36  A    between atoms: _92  and  _93
REMARK   37  A    between atoms: _98  and  _99
REMARK   38  A    between atoms: _101  and  _103
REMARK   39  A    between atoms: _103  and  _104
REMARK   40  A    between atoms: _103  and  _106
REMARK   41  A    between atoms: _106  and  _107
REMARK   42  A    between atoms: _110  and  _112
REMARK   43  A    between atoms: _112  and  _113
REMARK   44  A    between atoms: _112  and  _115
REMARK   45  A    between atoms: _115  and  _116
REMARK   46  A    between atoms: _116  and  _117
REMARK   47  A    between atoms: _117  and  _118
REMARK   48  A    between atoms: _127  and  _129
REMARK   49  A    between atoms: _129  and  _130
REMARK   50  A    between atoms: _129  and  _132
REMARK   51  A    between atoms: _132  and  _133
REMARK   52  A    between atoms: _136  and  _138
REMARK   53  A    between atoms: _138  and  _139
REMARK   54  A    between atoms: _138  and  _141
REMARK   55  A    between atoms: _141  and  _142
REMARK   56  A    between atoms: _145  and  _147
REMARK   57  A    between atoms: _147  and  _148
REMARK   58  A    between atoms: _147  and  _150
REMARK   59  A    between atoms: _150  and  _151
REMARK   60  A    between atoms: _151  and  _152
REMARK   61  A    between atoms: _157  and  _159
REMARK   62  A    between atoms: _159  and  _160
REMARK   63  A    between atoms: _159  and  _162
REMARK   64  A    between atoms: _162  and  _163
REMARK   65  A    between atoms: _168  and  _170
REMARK   66  A    between atoms: _170  and  _171
REMARK   67  A    between atoms: _174  and  _176
REMARK   68  A    between atoms: _176  and  _177
REMARK   69  A    between atoms: _179  and  _181
REMARK   70  A    between atoms: _181  and  _182
REMARK   71  A    between atoms: _181  and  _184
REMARK   72  A    between atoms: _184  and  _185
REMARK   73  A    between atoms: _188  and  _190
REMARK   74  A    between atoms: _190  and  _191
REMARK   75  A    between atoms: _190  and  _193
REMARK   76  A    between atoms: _193  and  _194
REMARK   77  A    between atoms: _194  and  _195
REMARK   78  A    between atoms: _195  and  _196
REMARK   79  A    between atoms: _205  and  _207
REMARK   80  A    between atoms: _207  and  _208
REMARK   81  A    between atoms: _207  and  _210
REMARK   82  A    between atoms: _213  and  _215
REMARK   83  A    between atoms: _215  and  _216
REMARK   84  A    between atoms: _215  and  _218
REMARK   85  A    between atoms: _218  and  _219
REMARK   86  A    between atoms: _224  and  _225
REMARK   87  A    between atoms: _227  and  _229
REMARK   88  A    between atoms: _229  and  _230
REMARK   89  A    between atoms: _229  and  _232
REMARK   90  A    between atoms: _232  and  _233
REMARK   91  A    between atoms: _235  and  _237
REMARK   92  A    between atoms: _237  and  _238
REMARK   93  A    between atoms: _237  and  _240
REMARK   94  A    between atoms: _240  and  _241
REMARK   95  A    between atoms: _246  and  _248
REMARK   96  A    between atoms: _248  and  _249
REMARK   97  A    between atoms: _248  and  _251
REMARK   98  A    between atoms: _251  and  _252
REMARK   99  A    between atoms: _252  and  _253
REMARK  100  A    between atoms: _256  and  _258
REMARK  101  A    between atoms: _258  and  _259
REMARK  102  A    between atoms: _258  and  _261
REMARK  103  A    between atoms: _261  and  _262
REMARK  104  A    between atoms: _267  and  _268
REMARK  105  A    between atoms: _270  and  _272
REMARK  106  A    between atoms: _272  and  _273
REMARK  107  A    between atoms: _276  and  _278
REMARK  108  A    between atoms: _278  and  _279
REMARK  109  A    between atoms: _278  and  _281
REMARK  110  A    between atoms: _281  and  _282
REMARK  111  A    between atoms: _286  and  _287
REMARK  112  A    between atoms: _292  and  _294
REMARK  113  A    between atoms: _294  and  _295
REMARK  114  A    between atoms: _294  and  _297
REMARK  115  A    between atoms: _297  and  _298
REMARK  116  A    between atoms: _301  and  _303
REMARK  117  A    between atoms: _303  and  _304
REMARK  118  A    between atoms: _303  and  _306
REMARK  119  A    between atoms: _306  and  _307
REMARK  120  A    between atoms: _307  and  _308
REMARK  121  A    between atoms: _313  and  _315
REMARK  122  A    between atoms: _315  and  _316
REMARK  123  A    between atoms: _315  and  _318
REMARK  124  A    between atoms: _318  and  _319
REMARK  125  A    between atoms: _322  and  _324
REMARK  126  A    between atoms: _324  and  _325
REMARK  127  A    between atoms: _324  and  _327
REMARK  128  A    between atoms: _327  and  _328
REMARK  129  A    between atoms: _331  and  _333
REMARK  130  A    between atoms: _333  and  _334
REMARK  131  A    between atoms: _333  and  _336
REMARK  132  A    between atoms: _336  and  _337
REMARK  133  A    between atoms: _343  and  _345
REMARK  134  A    between atoms: _345  and  _346
REMARK  135  A    between atoms: _348  and  _350
REMARK  136  A    between atoms: _350  and  _351
REMARK  137  A    between atoms: _350  and  _353
REMARK  138  A    between atoms: _353  and  _354
REMARK  139  A    between atoms: _357  and  _359
REMARK  140  A    between atoms: _359  and  _360
REMARK  141  A    between atoms: _363  and  _365
REMARK  142  A    between atoms: _365  and  _366
REMARK  143  A    between atoms: _365  and  _368
REMARK  144  A    between atoms: _368  and  _369
REMARK  145  A    between atoms: _379  and  _381
REMARK  146  A    between atoms: _381  and  _382
REMARK  147  A    between atoms: _381  and  _384
REMARK  148  A    between atoms: _384  and  _385
REMARK  149  A    between atoms: _387  and  _389
REMARK  150  A    between atoms: _389  and  _390
REMARK  151  A    between atoms: _389  and  _392
REMARK  152  A    between atoms: _392  and  _393
REMARK  153  A    between atoms: _398  and  _399
REMARK  154  A    between atoms: _401  and  _403
REMARK  155  A    between atoms: _403  and  _404
REMARK  156  A    between atoms: _403  and  _406
REMARK  157  A    between atoms: _406  and  _407
REMARK  158  A    between atoms: _412  and  _413
REMARK  159  A    between atoms: _415  and  _417
REMARK  160  A    between atoms: _417  and  _418
REMARK  161  A    between atoms: _417  and  _420
REMARK  162  A    between atoms: _420  and  _421
REMARK  163  A    between atoms: _424  and  _426
REMARK  164  A    between atoms: _426  and  _427
REMARK  165  A    between atoms: _429  and  _431
REMARK  166  A    between atoms: _431  and  _432
REMARK  167  A    between atoms: _431  and  _434
REMARK  168  A    between atoms: _434  and  _435
REMARK  169  A    between atoms: _440  and  _441
REMARK  170  A    between atoms: _443  and  _445
REMARK  171  A    between atoms: _445  and  _446
REMARK  172  A    between atoms: _445  and  _448
REMARK  173  A    between atoms: _448  and  _449
REMARK  174  A    between atoms: _452  and  _454
REMARK  175  A    between atoms: _454  and  _455
REMARK  176  A    between atoms: _454  and  _457
REMARK  177  A    between atoms: _457  and  _458
REMARK  178  A    between atoms: _458  and  _459
REMARK  179  A    between atoms: _459  and  _460
REMARK  180  A    between atoms: _469  and  _471
REMARK  181  A    between atoms: _471  and  _472
REMARK  182  A    between atoms: _471  and  _474
REMARK  183  A    between atoms: _474  and  _475
REMARK  184  A    between atoms: _478  and  _480
REMARK  185  A    between atoms: _480  and  _481
REMARK  186  A    between atoms: _480  and  _483
REMARK  187  A    between atoms: _483  and  _484
REMARK  188  A    between atoms: _487  and  _489
REMARK  189  A    between atoms: _489  and  _490
REMARK  190  A    between atoms: _489  and  _492
REMARK  191  A    between atoms: _492  and  _493
REMARK  192  A    between atoms: _493  and  _494
REMARK  193  A    between atoms: _494  and  _495
REMARK  194  A    between atoms: _504  and  _506
REMARK  195  A    between atoms: _506  and  _507
REMARK  196  A    between atoms: _506  and  _509
REMARK  197  A    between atoms: _509  and  _510
REMARK  198  A    between atoms: _513  and  _515
REMARK  199  A    between atoms: _515  and  _516
REMARK  200  A    between atoms: _515  and  _518
REMARK  201  A    between atoms: _518  and  _519
REMARK  202  A    between atoms: _519  and  _520
REMARK  203  A    between atoms: _520  and  _521
REMARK  204  A    between atoms: _521  and  _522
REMARK  205  A    between atoms: _526  and  _528
REMARK  206  A    between atoms: _528  and  _529
REMARK  207  A    between atoms: _528  and  _531
REMARK  208  A    between atoms: _531  and  _532
REMARK  209  A    between atoms: _532  and  _533
REMARK  210  A    between atoms: _538  and  _540
REMARK  211  A    between atoms: _540  and  _541
REMARK  212  A    between atoms: _540  and  _543
REMARK  213  A    between atoms: _543  and  _544
REMARK  214  A    between atoms: _549  and  _551
REMARK  215  A    between atoms: _551  and  _552
REMARK  216  A    between atoms: _555  and  _557
REMARK  217  A    between atoms: _557  and  _558
REMARK  218  A    between atoms: _557  and  _560
REMARK  219  A    between atoms: _560  and  _561
REMARK  220  A    between atoms: _564  and  _566
REMARK  221  A    between atoms: _566  and  _567
REMARK  222  A    between atoms: _566  and  _569
REMARK  223  A    between atoms: _569  and  _570
REMARK  224  A    between atoms: _570  and  _571
REMARK  225  A    between atoms: _571  and  _572
REMARK  226  A    between atoms: _581  and  _583
REMARK  227  A    between atoms: _583  and  _584
REMARK  228  A    between atoms: _583  and  _586
REMARK  229  A    between atoms: _589  and  _591
REMARK  230  A    between atoms: _591  and  _592
REMARK  231  A    between atoms: _591  and  _594
REMARK  232  A    between atoms: _594  and  _595
REMARK  233  A    between atoms: _600  and  _601
REMARK  234  A    between atoms: _603  and  _605
REMARK  235  A    between atoms: _605  and  _606
REMARK  236  A    between atoms: _605  and  _608
REMARK  237  A    between atoms: _608  and  _609
REMARK  238  A    between atoms: _611  and  _613
REMARK  239  A    between atoms: _613  and  _614
REMARK  240  A    between atoms: _613  and  _616
REMARK  241  A    between atoms: _616  and  _617
REMARK  242  A    between atoms: _622  and  _624
REMARK  243  A    between atoms: _624  and  _625
REMARK  244  A    between atoms: _624  and  _627
REMARK  245  A    between atoms: _627  and  _628
REMARK  246  A    between atoms: _628  and  _629
REMARK  247  A    between atoms: _632  and  _634
REMARK  248  A    between atoms: _634  and  _635
REMARK  249  A    between atoms: _634  and  _637
REMARK  250  A    between atoms: _637  and  _638
REMARK  251  A    between atoms: _643  and  _644
REMARK  252  A    between atoms: _646  and  _648
REMARK  253  A    between atoms: _648  and  _649
REMARK  254  A    between atoms: _652  and  _654
REMARK  255  A    between atoms: _654  and  _655
REMARK  256  A    between atoms: _654  and  _657
REMARK  257  A    between atoms: _657  and  _658
REMARK  258  A    between atoms: _662  and  _663
REMARK  259  A    between atoms: _668  and  _670
REMARK  260  A    between atoms: _670  and  _671
REMARK  261  A    between atoms: _670  and  _673
REMARK  262  A    between atoms: _673  and  _674
REMARK  263  A    between atoms: _677  and  _679
REMARK  264  A    between atoms: _679  and  _680
REMARK  265  A    between atoms: _679  and  _682
REMARK  266  A    between atoms: _682  and  _683
REMARK  267  A    between atoms: _683  and  _684
REMARK  268  A    between atoms: _689  and  _691
REMARK  269  A    between atoms: _691  and  _692
REMARK  270  A    between atoms: _691  and  _694
REMARK  271  A    between atoms: _694  and  _695
REMARK  272  A    between atoms: _698  and  _700
REMARK  273  A    between atoms: _700  and  _701
REMARK  274  A    between atoms: _700  and  _703
REMARK  275  A    between atoms: _703  and  _704
REMARK  276  A    between atoms: _707  and  _709
REMARK  277  A    between atoms: _709  and  _710
REMARK  278  A    between atoms: _709  and  _712
REMARK  279  A    between atoms: _712  and  _713
REMARK                            x       y       z     vdW  Elec       q    Type
REMARK                         _______ _______ _______ _____ _____    ______ ____
ROOT
ATOM      1  O   HOH     1     -55.315   9.489  64.167  0.00  0.00    +0.000 OA
ENDROOT
TORSDOF 0
REMARK  Name = ../refined-set-2016/4loh/4loh_pocket.pdb
REMARK  279 active torsions:
REMARK  status: ('A' for Active; 'I' for Inactive)
REMARK    1  A    between atoms: _1  and  _3
REMARK    2  A    between atoms: _3  and  _4
REMARK    3  A    between atoms: _6  and  _8
REMARK    4  A    between atoms: _8  and  _9
REMARK    5  A    between atoms: _8  and  _11
REMARK    6  A    between atoms: _11  and  _12
REMARK    7  A    between atoms: _15  and  _17
REMARK    8  A    between atoms: _17  and  _18
REMARK    9  A    between atoms: _21  and  _23
REMARK   10  A    between atoms: _23  and  _24
REMARK   11  A    between atoms: _23  and  _26
REMARK   12  A    between atoms: _26  and  _27
REMARK   13  A    between atoms: _37  and  _39
REMARK   14  A    between atoms: _39  and  _40
REMARK   15  A    between atoms: _39  and  _42
REMARK   16  A    between atoms: _42  and  _43
REMARK   17  A    between atoms: _45  and  _47
REMARK   18  A    between atoms: _47  and  _48
REMARK   19  A    between atoms: _47  and  _50
REMARK   20  A    between atoms: _50  and  _51
REMARK   21  A    between atoms: _56  and  _57
REMARK   22  A    between atoms: _59  and  _61
REMARK   23  A    between atoms: _61  and  _62
REMARK   24  A    between atoms: _61  and  _64
REMARK   25  A    between atoms: _64  and  _65
REMARK   26  A    between atoms: _70  and  _71
REMARK   27  A    between atoms: _73  and  _75
REMARK   28  A    between atoms: _75  and  _76
REMARK   29  A    between atoms: _75  and  _78
REMARK   30  A    between atoms: _78  and  _79
REMARK   31  A    between atoms: _82  and  _84
REMARK   32  A    between atoms: _84  and  _85
REMARK   33  A    between atoms: _87  and  _89
REMARK   34  A    between atoms: _89  and  _90
REMARK   35  A    between atoms: _89  and  _92
REMARK   36  A    between atoms: _92  and  _93
REMARK   37  A    between atoms: _98  and  _99
REMARK   38  A    between atoms: _101  and  _103
REMARK   39  A    between atoms: _103  and  _104
REMARK   40  A    between atoms: _103  and  _106
REMARK   41  A    between atoms: _106  and  _107
REMARK   42  A    between atoms: _110  and  _112
REMARK   43  A    between atoms: _112  and  _113
REMARK   44  A    between atoms: _112  and  _115
REMARK   45  A    between atoms: _115  and  _116
REMARK   46  A    between atoms: _116  and  _117
REMARK   47  A    between atoms: _117  and  _118
REMARK   48  A    between atoms: _127  and  _129
REMARK   49  A    between atoms: _129  and  _130
REMARK   50  A    between atoms: _129  and  _132
REMARK   51  A    between atoms: _132  and  _133
REMARK   52  A    between atoms: _136  and  _138
REMARK   53  A    between atoms: _138  and  _139
REMARK   54  A    between atoms: _138  and  _141
REMARK   55  A    between atoms: _141  and  _142
REMARK   56  A    between atoms: _145  and  _147
REMARK   57  A    between atoms: _147  and  _148
REMARK   58  A    between atoms: _147  and  _150
REMARK   59  A    between atoms: _150  and  _151
REMARK   60  A    between atoms: _151  and  _152
REMARK   61  A    between atoms: _157  and  _159
REMARK   62  A    between atoms: _159  and  _160
REMARK   63  A    between atoms: _159  and  _162
REMARK   64  A    between atoms: _162  and  _163
REMARK   65  A    between atoms: _168  and  _170
REMARK   66  A    between atoms: _170  and  _171
REMARK   67  A    between atoms: _174  and  _176
REMARK   68  A    between atoms: _176  and  _177
REMARK   69  A    between atoms: _179  and  _181
REMARK   70  A    between atoms: _181  and  _182
REMARK   71  A    between atoms: _181  and  _184
REMARK   72  A    between atoms: _184  and  _185
REMARK   73  A    between atoms: _188  and  _190
REMARK   74  A    between atoms: _190  and  _191
REMARK   75  A    between atoms: _190  and  _193
REMARK   76  A    between atoms: _193  and  _194
REMARK   77  A    between atoms: _194  and  _195
REMARK   78  A    between atoms: _195  and  _196
REMARK   79  A    between atoms: _205  and  _207
REMARK   80  A    between atoms: _207  and  _208
REMARK   81  A    between atoms: _207  and  _210
REMARK   82  A    between atoms: _213  and  _215
REMARK   83  A    between atoms: _215  and  _216
REMARK   84  A    between atoms: _215  and  _218
REMARK   85  A    between atoms: _218  and  _219
REMARK   86  A    between atoms: _224  and  _225
REMARK   87  A    between atoms: _227  and  _229
REMARK   88  A    between atoms: _229  and  _230
REMARK   89  A    between atoms: _229  and  _232
REMARK   90  A    between atoms: _232  and  _233
REMARK   91  A    between atoms: _235  and  _237
REMARK   92  A    between atoms: _237  and  _238
REMARK   93  A    between atoms: _237  and  _240
REMARK   94  A    between atoms: _240  and  _241
REMARK   95  A    between atoms: _246  and  _248
REMARK   96  A    between atoms: _248  and  _249
REMARK   97  A    between atoms: _248  and  _251
REMARK   98  A    between atoms: _251  and  _252
REMARK   99  A    between atoms: _252  and  _253
REMARK  100  A    between atoms: _256  and  _258
REMARK  101  A    between atoms: _258  and  _259
REMARK  102  A    between atoms: _258  and  _261
REMARK  103  A    between atoms: _261  and  _262
REMARK  104  A    between atoms: _267  and  _268
REMARK  105  A    between atoms: _270  and  _272
REMARK  106  A    between atoms: _272  and  _273
REMARK  107  A    between atoms: _276  and  _278
REMARK  108  A    between atoms: _278  and  _279
REMARK  109  A    between atoms: _278  and  _281
REMARK  110  A    between atoms: _281  and  _282
REMARK  111  A    between atoms: _286  and  _287
REMARK  112  A    between atoms: _292  and  _294
REMARK  113  A    between atoms: _294  and  _295
REMARK  114  A    between atoms: _294  and  _297
REMARK  115  A    between atoms: _297  and  _298
REMARK  116  A    between atoms: _301  and  _303
REMARK  117  A    between atoms: _303  and  _304
REMARK  118  A    between atoms: _303  and  _306
REMARK  119  A    between atoms: _306  and  _307
REMARK  120  A    between atoms: _307  and  _308
REMARK  121  A    between atoms: _313  and  _315
REMARK  122  A    between atoms: _315  and  _316
REMARK  123  A    between atoms: _315  and  _318
REMARK  124  A    between atoms: _318  and  _319
REMARK  125  A    between atoms: _322  and  _324
REMARK  126  A    between atoms: _324  and  _325
REMARK  127  A    between atoms: _324  and  _327
REMARK  128  A    between atoms: _327  and  _328
REMARK  129  A    between atoms: _331  and  _333
REMARK  130  A    between atoms: _333  and  _334
REMARK  131  A    between atoms: _333  and  _336
REMARK  132  A    between atoms: _336  and  _337
REMARK  133  A    between atoms: _343  and  _345
REMARK  134  A    between atoms: _345  and  _346
REMARK  135  A    between atoms: _348  and  _350
REMARK  136  A    between atoms: _350  and  _351
REMARK  137  A    between atoms: _350  and  _353
REMARK  138  A    between atoms: _353  and  _354
REMARK  139  A    between atoms: _357  and  _359
REMARK  140  A    between atoms: _359  and  _360
REMARK  141  A    between atoms: _363  and  _365
REMARK  142  A    between atoms: _365  and  _366
REMARK  143  A    between atoms: _365  and  _368
REMARK  144  A    between atoms: _368  and  _369
REMARK  145  A    between atoms: _379  and  _381
REMARK  146  A    between atoms: _381  and  _382
REMARK  147  A    between atoms: _381  and  _384
REMARK  148  A    between atoms: _384  and  _385
REMARK  149  A    between atoms: _387  and  _389
REMARK  150  A    between atoms: _389  and  _390
REMARK  151  A    between atoms: _389  and  _392
REMARK  152  A    between atoms: _392  and  _393
REMARK  153  A    between atoms: _398  and  _399
REMARK  154  A    between atoms: _401  and  _403
REMARK  155  A    between atoms: _403  and  _404
REMARK  156  A    between atoms: _403  and  _406
REMARK  157  A    between atoms: _406  and  _407
REMARK  158  A    between atoms: _412  and  _413
REMARK  159  A    between atoms: _415  and  _417
REMARK  160  A    between atoms: _417  and  _418
REMARK  161  A    between atoms: _417  and  _420
REMARK  162  A    between atoms: _420  and  _421
REMARK  163  A    between atoms: _424  and  _426
REMARK  164  A    between atoms: _426  and  _427
REMARK  165  A    between atoms: _429  and  _431
REMARK  166  A    between atoms: _431  and  _432
REMARK  167  A    between atoms: _431  and  _434
REMARK  168  A    between atoms: _434  and  _435
REMARK  169  A    between atoms: _440  and  _441
REMARK  170  A    between atoms: _443  and  _445
REMARK  171  A    between atoms: _445  and  _446
REMARK  172  A    between atoms: _445  and  _448
REMARK  173  A    between atoms: _448  and  _449
REMARK  174  A    between atoms: _452  and  _454
REMARK  175  A    between atoms: _454  and  _455
REMARK  176  A    between atoms: _454  and  _457
REMARK  177  A    between atoms: _457  and  _458
REMARK  178  A    between atoms: _458  and  _459
REMARK  179  A    between atoms: _459  and  _460
REMARK  180  A    between atoms: _469  and  _471
REMARK  181  A    between atoms: _471  and  _472
REMARK  182  A    between atoms: _471  and  _474
REMARK  183  A    between atoms: _474  and  _475
REMARK  184  A    between atoms: _478  and  _480
REMARK  185  A    between atoms: _480  and  _481
REMARK  186  A    between atoms: _480  and  _483
REMARK  187  A    between atoms: _483  and  _484
REMARK  188  A    between atoms: _487  and  _489
REMARK  189  A    between atoms: _489  and  _490
REMARK  190  A    between atoms: _489  and  _492
REMARK  191  A    between atoms: _492  and  _493
REMARK  192  A    between atoms: _493  and  _494
REMARK  193  A    between atoms: _494  and  _495
REMARK  194  A    between atoms: _504  and  _506
REMARK  195  A    between atoms: _506  and  _507
REMARK  196  A    between atoms: _506  and  _509
REMARK  197  A    between atoms: _509  and  _510
REMARK  198  A    between atoms: _513  and  _515
REMARK  199  A    between atoms: _515  and  _516
REMARK  200  A    between atoms: _515  and  _518
REMARK  201  A    between atoms: _518  and  _519
REMARK  202  A    between atoms: _519  and  _520
REMARK  203  A    between atoms: _520  and  _521
REMARK  204  A    between atoms: _521  and  _522
REMARK  205  A    between atoms: _526  and  _528
REMARK  206  A    between atoms: _528  and  _529
REMARK  207  A    between atoms: _528  and  _531
REMARK  208  A    between atoms: _531  and  _532
REMARK  209  A    between atoms: _532  and  _533
REMARK  210  A    between atoms: _538  and  _540
REMARK  211  A    between atoms: _540  and  _541
REMARK  212  A    between atoms: _540  and  _543
REMARK  213  A    between atoms: _543  and  _544
REMARK  214  A    between atoms: _549  and  _551
REMARK  215  A    between atoms: _551  and  _552
REMARK  216  A    between atoms: _555  and  _557
REMARK  217  A    between atoms: _557  and  _558
REMARK  218  A    between atoms: _557  and  _560
REMARK  219  A    between atoms: _560  and  _561
REMARK  220  A    between atoms: _564  and  _566
REMARK  221  A    between atoms: _566  and  _567
REMARK  222  A    between atoms: _566  and  _569
REMARK  223  A    between atoms: _569  and  _570
REMARK  224  A    between atoms: _570  and  _571
REMARK  225  A    between atoms: _571  and  _572
REMARK  226  A    between atoms: _581  and  _583
REMARK  227  A    between atoms: _583  and  _584
REMARK  228  A    between atoms: _583  and  _586
REMARK  229  A    between atoms: _589  and  _591
REMARK  230  A    between atoms: _591  and  _592
REMARK  231  A    between atoms: _591  and  _594
REMARK  232  A    between atoms: _594  and  _595
REMARK  233  A    between atoms: _600  and  _601
REMARK  234  A    between atoms: _603  and  _605
REMARK  235  A    between atoms: _605  and  _606
REMARK  236  A    between atoms: _605  and  _608
REMARK  237  A    between atoms: _608  and  _609
REMARK  238  A    between atoms: _611  and  _613
REMARK  239  A    between atoms: _613  and  _614
REMARK  240  A    between atoms: _613  and  _616
REMARK  241  A    between atoms: _616  and  _617
REMARK  242  A    between atoms: _622  and  _624
REMARK  243  A    between atoms: _624  and  _625
REMARK  244  A    between atoms: _624  and  _627
REMARK  245  A    between atoms: _627  and  _628
REMARK  246  A    between atoms: _628  and  _629
REMARK  247  A    between atoms: _632  and  _634
REMARK  248  A    between atoms: _634  and  _635
REMARK  249  A    between atoms: _634  and  _637
REMARK  250  A    between atoms: _637  and  _638
REMARK  251  A    between atoms: _643  and  _644
REMARK  252  A    between atoms: _646  and  _648
REMARK  253  A    between atoms: _648  and  _649
REMARK  254  A    between atoms: _652  and  _654
REMARK  255  A    between atoms: _654  and  _655
REMARK  256  A    between atoms: _654  and  _657
REMARK  257  A    between atoms: _657  and  _658
REMARK  258  A    between atoms: _662  and  _663
REMARK  259  A    between atoms: _668  and  _670
REMARK  260  A    between atoms: _670  and  _671
REMARK  261  A    between atoms: _670  and  _673
REMARK  262  A    between atoms: _673  and  _674
REMARK  263  A    between atoms: _677  and  _679
REMARK  264  A    between atoms: _679  and  _680
REMARK  265  A    between atoms: _679  and  _682
REMARK  266  A    between atoms: _682  and  _683
REMARK  267  A    between atoms: _683  and  _684
REMARK  268  A    between atoms: _689  and  _691
REMARK  269  A    between atoms: _691  and  _692
REMARK  270  A    between atoms: _691  and  _694
REMARK  271  A    between atoms: _694  and  _695
REMARK  272  A    between atoms: _698  and  _700
REMARK  273  A    between atoms: _700  and  _701
REMARK  274  A    between atoms: _700  and  _703
REMARK  275  A    between atoms: _703  and  _704
REMARK  276  A    between atoms: _707  and  _709
REMARK  277  A    between atoms: _709  and  _710
REMARK  278  A    between atoms: _709  and  _712
REMARK  279  A    between atoms: _712  and  _713
REMARK                            x       y       z     vdW  Elec       q    Type
REMARK                         _______ _______ _______ _____ _____    ______ ____
ROOT
ATOM      1  O   HOH     1     -56.215  12.962  67.174  0.00  0.00    +0.000 OA
ENDROOT
TORSDOF 0
REMARK  Name = ../refined-set-2016/4loh/4loh_pocket.pdb
REMARK  279 active torsions:
REMARK  status: ('A' for Active; 'I' for Inactive)
REMARK    1  A    between atoms: _1  and  _3
REMARK    2  A    between atoms: _3  and  _4
REMARK    3  A    between atoms: _6  and  _8
REMARK    4  A    between atoms: _8  and  _9
REMARK    5  A    between atoms: _8  and  _11
REMARK    6  A    between atoms: _11  and  _12
REMARK    7  A    between atoms: _15  and  _17
REMARK    8  A    between atoms: _17  and  _18
REMARK    9  A    between atoms: _21  and  _23
REMARK   10  A    between atoms: _23  and  _24
REMARK   11  A    between atoms: _23  and  _26
REMARK   12  A    between atoms: _26  and  _27
REMARK   13  A    between atoms: _37  and  _39
REMARK   14  A    between atoms: _39  and  _40
REMARK   15  A    between atoms: _39  and  _42
REMARK   16  A    between atoms: _42  and  _43
REMARK   17  A    between atoms: _45  and  _47
REMARK   18  A    between atoms: _47  and  _48
REMARK   19  A    between atoms: _47  and  _50
REMARK   20  A    between atoms: _50  and  _51
REMARK   21  A    between atoms: _56  and  _57
REMARK   22  A    between atoms: _59  and  _61
REMARK   23  A    between atoms: _61  and  _62
REMARK   24  A    between atoms: _61  and  _64
REMARK   25  A    between atoms: _64  and  _65
REMARK   26  A    between atoms: _70  and  _71
REMARK   27  A    between atoms: _73  and  _75
REMARK   28  A    between atoms: _75  and  _76
REMARK   29  A    between atoms: _75  and  _78
REMARK   30  A    between atoms: _78  and  _79
REMARK   31  A    between atoms: _82  and  _84
REMARK   32  A    between atoms: _84  and  _85
REMARK   33  A    between atoms: _87  and  _89
REMARK   34  A    between atoms: _89  and  _90
REMARK   35  A    between atoms: _89  and  _92
REMARK   36  A    between atoms: _92  and  _93
REMARK   37  A    between atoms: _98  and  _99
REMARK   38  A    between atoms: _101  and  _103
REMARK   39  A    between atoms: _103  and  _104
REMARK   40  A    between atoms: _103  and  _106
REMARK   41  A    between atoms: _106  and  _107
REMARK   42  A    between atoms: _110  and  _112
REMARK   43  A    between atoms: _112  and  _113
REMARK   44  A    between atoms: _112  and  _115
REMARK   45  A    between atoms: _115  and  _116
REMARK   46  A    between atoms: _116  and  _117
REMARK   47  A    between atoms: _117  and  _118
REMARK   48  A    between atoms: _127  and  _129
REMARK   49  A    between atoms: _129  and  _130
REMARK   50  A    between atoms: _129  and  _132
REMARK   51  A    between atoms: _132  and  _133
REMARK   52  A    between atoms: _136  and  _138
REMARK   53  A    between atoms: _138  and  _139
REMARK   54  A    between atoms: _138  and  _141
REMARK   55  A    between atoms: _141  and  _142
REMARK   56  A    between atoms: _145  and  _147
REMARK   57  A    between atoms: _147  and  _148
REMARK   58  A    between atoms: _147  and  _150
REMARK   59  A    between atoms: _150  and  _151
REMARK   60  A    between atoms: _151  and  _152
REMARK   61  A    between atoms: _157  and  _159
REMARK   62  A    between atoms: _159  and  _160
REMARK   63  A    between atoms: _159  and  _162
REMARK   64  A    between atoms: _162  and  _163
REMARK   65  A    between atoms: _168  and  _170
REMARK   66  A    between atoms: _170  and  _171
REMARK   67  A    between atoms: _174  and  _176
REMARK   68  A    between atoms: _176  and  _177
REMARK   69  A    between atoms: _179  and  _181
REMARK   70  A    between atoms: _181  and  _182
REMARK   71  A    between atoms: _181  and  _184
REMARK   72  A    between atoms: _184  and  _185
REMARK   73  A    between atoms: _188  and  _190
REMARK   74  A    between atoms: _190  and  _191
REMARK   75  A    between atoms: _190  and  _193
REMARK   76  A    between atoms: _193  and  _194
REMARK   77  A    between atoms: _194  and  _195
REMARK   78  A    between atoms: _195  and  _196
REMARK   79  A    between atoms: _205  and  _207
REMARK   80  A    between atoms: _207  and  _208
REMARK   81  A    between atoms: _207  and  _210
REMARK   82  A    between atoms: _213  and  _215
REMARK   83  A    between atoms: _215  and  _216
REMARK   84  A    between atoms: _215  and  _218
REMARK   85  A    between atoms: _218  and  _219
REMARK   86  A    between atoms: _224  and  _225
REMARK   87  A    between atoms: _227  and  _229
REMARK   88  A    between atoms: _229  and  _230
REMARK   89  A    between atoms: _229  and  _232
REMARK   90  A    between atoms: _232  and  _233
REMARK   91  A    between atoms: _235  and  _237
REMARK   92  A    between atoms: _237  and  _238
REMARK   93  A    between atoms: _237  and  _240
REMARK   94  A    between atoms: _240  and  _241
REMARK   95  A    between atoms: _246  and  _248
REMARK   96  A    between atoms: _248  and  _249
REMARK   97  A    between atoms: _248  and  _251
REMARK   98  A    between atoms: _251  and  _252
REMARK   99  A    between atoms: _252  and  _253
REMARK  100  A    between atoms: _256  and  _258
REMARK  101  A    between atoms: _258  and  _259
REMARK  102  A    between atoms: _258  and  _261
REMARK  103  A    between atoms: _261  and  _262
REMARK  104  A    between atoms: _267  and  _268
REMARK  105  A    between atoms: _270  and  _272
REMARK  106  A    between atoms: _272  and  _273
REMARK  107  A    between atoms: _276  and  _278
REMARK  108  A    between atoms: _278  and  _279
REMARK  109  A    between atoms: _278  and  _281
REMARK  110  A    between atoms: _281  and  _282
REMARK  111  A    between atoms: _286  and  _287
REMARK  112  A    between atoms: _292  and  _294
REMARK  113  A    between atoms: _294  and  _295
REMARK  114  A    between atoms: _294  and  _297
REMARK  115  A    between atoms: _297  and  _298
REMARK  116  A    between atoms: _301  and  _303
REMARK  117  A    between atoms: _303  and  _304
REMARK  118  A    between atoms: _303  and  _306
REMARK  119  A    between atoms: _306  and  _307
REMARK  120  A    between atoms: _307  and  _308
REMARK  121  A    between atoms: _313  and  _315
REMARK  122  A    between atoms: _315  and  _316
REMARK  123  A    between atoms: _315  and  _318
REMARK  124  A    between atoms: _318  and  _319
REMARK  125  A    between atoms: _322  and  _324
REMARK  126  A    between atoms: _324  and  _325
REMARK  127  A    between atoms: _324  and  _327
REMARK  128  A    between atoms: _327  and  _328
REMARK  129  A    between atoms: _331  and  _333
REMARK  130  A    between atoms: _333  and  _334
REMARK  131  A    between atoms: _333  and  _336
REMARK  132  A    between atoms: _336  and  _337
REMARK  133  A    between atoms: _343  and  _345
REMARK  134  A    between atoms: _345  and  _346
REMARK  135  A    between atoms: _348  and  _350
REMARK  136  A    between atoms: _350  and  _351
REMARK  137  A    between atoms: _350  and  _353
REMARK  138  A    between atoms: _353  and  _354
REMARK  139  A    between atoms: _357  and  _359
REMARK  140  A    between atoms: _359  and  _360
REMARK  141  A    between atoms: _363  and  _365
REMARK  142  A    between atoms: _365  and  _366
REMARK  143  A    between atoms: _365  and  _368
REMARK  144  A    between atoms: _368  and  _369
REMARK  145  A    between atoms: _379  and  _381
REMARK  146  A    between atoms: _381  and  _382
REMARK  147  A    between atoms: _381  and  _384
REMARK  148  A    between atoms: _384  and  _385
REMARK  149  A    between atoms: _387  and  _389
REMARK  150  A    between atoms: _389  and  _390
REMARK  151  A    between atoms: _389  and  _392
REMARK  152  A    between atoms: _392  and  _393
REMARK  153  A    between atoms: _398  and  _399
REMARK  154  A    between atoms: _401  and  _403
REMARK  155  A    between atoms: _403  and  _404
REMARK  156  A    between atoms: _403  and  _406
REMARK  157  A    between atoms: _406  and  _407
REMARK  158  A    between atoms: _412  and  _413
REMARK  159  A    between atoms: _415  and  _417
REMARK  160  A    between atoms: _417  and  _418
REMARK  161  A    between atoms: _417  and  _420
REMARK  162  A    between atoms: _420  and  _421
REMARK  163  A    between atoms: _424  and  _426
REMARK  164  A    between atoms: _426  and  _427
REMARK  165  A    between atoms: _429  and  _431
REMARK  166  A    between atoms: _431  and  _432
REMARK  167  A    between atoms: _431  and  _434
REMARK  168  A    between atoms: _434  and  _435
REMARK  169  A    between atoms: _440  and  _441
REMARK  170  A    between atoms: _443  and  _445
REMARK  171  A    between atoms: _445  and  _446
REMARK  172  A    between atoms: _445  and  _448
REMARK  173  A    between atoms: _448  and  _449
REMARK  174  A    between atoms: _452  and  _454
REMARK  175  A    between atoms: _454  and  _455
REMARK  176  A    between atoms: _454  and  _457
REMARK  177  A    between atoms: _457  and  _458
REMARK  178  A    between atoms: _458  and  _459
REMARK  179  A    between atoms: _459  and  _460
REMARK  180  A    between atoms: _469  and  _471
REMARK  181  A    between atoms: _471  and  _472
REMARK  182  A    between atoms: _471  and  _474
REMARK  183  A    between atoms: _474  and  _475
REMARK  184  A    between atoms: _478  and  _480
REMARK  185  A    between atoms: _480  and  _481
REMARK  186  A    between atoms: _480  and  _483
REMARK  187  A    between atoms: _483  and  _484
REMARK  188  A    between atoms: _487  and  _489
REMARK  189  A    between atoms: _489  and  _490
REMARK  190  A    between atoms: _489  and  _492
REMARK  191  A    between atoms: _492  and  _493
REMARK  192  A    between atoms: _493  and  _494
REMARK  193  A    between atoms: _494  and  _495
REMARK  194  A    between atoms: _504  and  _506
REMARK  195  A    between atoms: _506  and  _507
REMARK  196  A    between atoms: _506  and  _509
REMARK  197  A    between atoms: _509  and  _510
REMARK  198  A    between atoms: _513  and  _515
REMARK  199  A    between atoms: _515  and  _516
REMARK  200  A    between atoms: _515  and  _518
REMARK  201  A    between atoms: _518  and  _519
REMARK  202  A    between atoms: _519  and  _520
REMARK  203  A    between atoms: _520  and  _521
REMARK  204  A    between atoms: _521  and  _522
REMARK  205  A    between atoms: _526  and  _528
REMARK  206  A    between atoms: _528  and  _529
REMARK  207  A    between atoms: _528  and  _531
REMARK  208  A    between atoms: _531  and  _532
REMARK  209  A    between atoms: _532  and  _533
REMARK  210  A    between atoms: _538  and  _540
REMARK  211  A    between atoms: _540  and  _541
REMARK  212  A    between atoms: _540  and  _543
REMARK  213  A    between atoms: _543  and  _544
REMARK  214  A    between atoms: _549  and  _551
REMARK  215  A    between atoms: _551  and  _552
REMARK  216  A    between atoms: _555  and  _557
REMARK  217  A    between atoms: _557  and  _558
REMARK  218  A    between atoms: _557  and  _560
REMARK  219  A    between atoms: _560  and  _561
REMARK  220  A    between atoms: _564  and  _566
REMARK  221  A    between atoms: _566  and  _567
REMARK  222  A    between atoms: _566  and  _569
REMARK  223  A    between atoms: _569  and  _570
REMARK  224  A    between atoms: _570  and  _571
REMARK  225  A    between atoms: _571  and  _572
REMARK  226  A    between atoms: _581  and  _583
REMARK  227  A    between atoms: _583  and  _584
REMARK  228  A    between atoms: _583  and  _586
REMARK  229  A    between atoms: _589  and  _591
REMARK  230  A    between atoms: _591  and  _592
REMARK  231  A    between atoms: _591  and  _594
REMARK  232  A    between atoms: _594  and  _595
REMARK  233  A    between atoms: _600  and  _601
REMARK  234  A    between atoms: _603  and  _605
REMARK  235  A    between atoms: _605  and  _606
REMARK  236  A    between atoms: _605  and  _608
REMARK  237  A    between atoms: _608  and  _609
REMARK  238  A    between atoms: _611  and  _613
REMARK  239  A    between atoms: _613  and  _614
REMARK  240  A    between atoms: _613  and  _616
REMARK  241  A    between atoms: _616  and  _617
REMARK  242  A    between atoms: _622  and  _624
REMARK  243  A    between atoms: _624  and  _625
REMARK  244  A    between atoms: _624  and  _627
REMARK  245  A    between atoms: _627  and  _628
REMARK  246  A    between atoms: _628  and  _629
REMARK  247  A    between atoms: _632  and  _634
REMARK  248  A    between atoms: _634  and  _635
REMARK  249  A    between atoms: _634  and  _637
REMARK  250  A    between atoms: _637  and  _638
REMARK  251  A    between atoms: _643  and  _644
REMARK  252  A    between atoms: _646  and  _648
REMARK  253  A    between atoms: _648  and  _649
REMARK  254  A    between atoms: _652  and  _654
REMARK  255  A    between atoms: _654  and  _655
REMARK  256  A    between atoms: _654  and  _657
REMARK  257  A    between atoms: _657  and  _658
REMARK  258  A    between atoms: _662  and  _663
REMARK  259  A    between atoms: _668  and  _670
REMARK  260  A    between atoms: _670  and  _671
REMARK  261  A    between atoms: _670  and  _673
REMARK  262  A    between atoms: _673  and  _674
REMARK  263  A    between atoms: _677  and  _679
REMARK  264  A    between atoms: _679  and  _680
REMARK  265  A    between atoms: _679  and  _682
REMARK  266  A    between atoms: _682  and  _683
REMARK  267  A    between atoms: _683  and  _684
REMARK  268  A    between atoms: _689  and  _691
REMARK  269  A    between atoms: _691  and  _692
REMARK  270  A    between atoms: _691  and  _694
REMARK  271  A    between atoms: _694  and  _695
REMARK  272  A    between atoms: _698  and  _700
REMARK  273  A    between atoms: _700  and  _701
REMARK  274  A    between atoms: _700  and  _703
REMARK  275  A    between atoms: _703  and  _704
REMARK  276  A    between atoms: _707  and  _709
REMARK  277  A    between atoms: _709  and  _710
REMARK  278  A    between atoms: _709  and  _712
REMARK  279  A    between atoms: _712  and  _713
REMARK                            x       y       z     vdW  Elec       q    Type
REMARK                         _______ _______ _______ _____ _____    ______ ____
ROOT
ATOM      1  O   HOH     1     -59.490  11.887  73.899  0.00  0.00    +0.000 OA
ENDROOT
TORSDOF 0
REMARK  Name = ../refined-set-2016/4loh/4loh_pocket.pdb
REMARK  279 active torsions:
REMARK  status: ('A' for Active; 'I' for Inactive)
REMARK    1  A    between atoms: _1  and  _3
REMARK    2  A    between atoms: _3  and  _4
REMARK    3  A    between atoms: _6  and  _8
REMARK    4  A    between atoms: _8  and  _9
REMARK    5  A    between atoms: _8  and  _11
REMARK    6  A    between atoms: _11  and  _12
REMARK    7  A    between atoms: _15  and  _17
REMARK    8  A    between atoms: _17  and  _18
REMARK    9  A    between atoms: _21  and  _23
REMARK   10  A    between atoms: _23  and  _24
REMARK   11  A    between atoms: _23  and  _26
REMARK   12  A    between atoms: _26  and  _27
REMARK   13  A    between atoms: _37  and  _39
REMARK   14  A    between atoms: _39  and  _40
REMARK   15  A    between atoms: _39  and  _42
REMARK   16  A    between atoms: _42  and  _43
REMARK   17  A    between atoms: _45  and  _47
REMARK   18  A    between atoms: _47  and  _48
REMARK   19  A    between atoms: _47  and  _50
REMARK   20  A    between atoms: _50  and  _51
REMARK   21  A    between atoms: _56  and  _57
REMARK   22  A    between atoms: _59  and  _61
REMARK   23  A    between atoms: _61  and  _62
REMARK   24  A    between atoms: _61  and  _64
REMARK   25  A    between atoms: _64  and  _65
REMARK   26  A    between atoms: _70  and  _71
REMARK   27  A    between atoms: _73  and  _75
REMARK   28  A    between atoms: _75  and  _76
REMARK   29  A    between atoms: _75  and  _78
REMARK   30  A    between atoms: _78  and  _79
REMARK   31  A    between atoms: _82  and  _84
REMARK   32  A    between atoms: _84  and  _85
REMARK   33  A    between atoms: _87  and  _89
REMARK   34  A    between atoms: _89  and  _90
REMARK   35  A    between atoms: _89  and  _92
REMARK   36  A    between atoms: _92  and  _93
REMARK   37  A    between atoms: _98  and  _99
REMARK   38  A    between atoms: _101  and  _103
REMARK   39  A    between atoms: _103  and  _104
REMARK   40  A    between atoms: _103  and  _106
REMARK   41  A    between atoms: _106  and  _107
REMARK   42  A    between atoms: _110  and  _112
REMARK   43  A    between atoms: _112  and  _113
REMARK   44  A    between atoms: _112  and  _115
REMARK   45  A    between atoms: _115  and  _116
REMARK   46  A    between atoms: _116  and  _117
REMARK   47  A    between atoms: _117  and  _118
REMARK   48  A    between atoms: _127  and  _129
REMARK   49  A    between atoms: _129  and  _130
REMARK   50  A    between atoms: _129  and  _132
REMARK   51  A    between atoms: _132  and  _133
REMARK   52  A    between atoms: _136  and  _138
REMARK   53  A    between atoms: _138  and  _139
REMARK   54  A    between atoms: _138  and  _141
REMARK   55  A    between atoms: _141  and  _142
REMARK   56  A    between atoms: _145  and  _147
REMARK   57  A    between atoms: _147  and  _148
REMARK   58  A    between atoms: _147  and  _150
REMARK   59  A    between atoms: _150  and  _151
REMARK   60  A    between atoms: _151  and  _152
REMARK   61  A    between atoms: _157  and  _159
REMARK   62  A    between atoms: _159  and  _160
REMARK   63  A    between atoms: _159  and  _162
REMARK   64  A    between atoms: _162  and  _163
REMARK   65  A    between atoms: _168  and  _170
REMARK   66  A    between atoms: _170  and  _171
REMARK   67  A    between atoms: _174  and  _176
REMARK   68  A    between atoms: _176  and  _177
REMARK   69  A    between atoms: _179  and  _181
REMARK   70  A    between atoms: _181  and  _182
REMARK   71  A    between atoms: _181  and  _184
REMARK   72  A    between atoms: _184  and  _185
REMARK   73  A    between atoms: _188  and  _190
REMARK   74  A    between atoms: _190  and  _191
REMARK   75  A    between atoms: _190  and  _193
REMARK   76  A    between atoms: _193  and  _194
REMARK   77  A    between atoms: _194  and  _195
REMARK   78  A    between atoms: _195  and  _196
REMARK   79  A    between atoms: _205  and  _207
REMARK   80  A    between atoms: _207  and  _208
REMARK   81  A    between atoms: _207  and  _210
REMARK   82  A    between atoms: _213  and  _215
REMARK   83  A    between atoms: _215  and  _216
REMARK   84  A    between atoms: _215  and  _218
REMARK   85  A    between atoms: _218  and  _219
REMARK   86  A    between atoms: _224  and  _225
REMARK   87  A    between atoms: _227  and  _229
REMARK   88  A    between atoms: _229  and  _230
REMARK   89  A    between atoms: _229  and  _232
REMARK   90  A    between atoms: _232  and  _233
REMARK   91  A    between atoms: _235  and  _237
REMARK   92  A    between atoms: _237  and  _238
REMARK   93  A    between atoms: _237  and  _240
REMARK   94  A    between atoms: _240  and  _241
REMARK   95  A    between atoms: _246  and  _248
REMARK   96  A    between atoms: _248  and  _249
REMARK   97  A    between atoms: _248  and  _251
REMARK   98  A    between atoms: _251  and  _252
REMARK   99  A    between atoms: _252  and  _253
REMARK  100  A    between atoms: _256  and  _258
REMARK  101  A    between atoms: _258  and  _259
REMARK  102  A    between atoms: _258  and  _261
REMARK  103  A    between atoms: _261  and  _262
REMARK  104  A    between atoms: _267  and  _268
REMARK  105  A    between atoms: _270  and  _272
REMARK  106  A    between atoms: _272  and  _273
REMARK  107  A    between atoms: _276  and  _278
REMARK  108  A    between atoms: _278  and  _279
REMARK  109  A    between atoms: _278  and  _281
REMARK  110  A    between atoms: _281  and  _282
REMARK  111  A    between atoms: _286  and  _287
REMARK  112  A    between atoms: _292  and  _294
REMARK  113  A    between atoms: _294  and  _295
REMARK  114  A    between atoms: _294  and  _297
REMARK  115  A    between atoms: _297  and  _298
REMARK  116  A    between atoms: _301  and  _303
REMARK  117  A    between atoms: _303  and  _304
REMARK  118  A    between atoms: _303  and  _306
REMARK  119  A    between atoms: _306  and  _307
REMARK  120  A    between atoms: _307  and  _308
REMARK  121  A    between atoms: _313  and  _315
REMARK  122  A    between atoms: _315  and  _316
REMARK  123  A    between atoms: _315  and  _318
REMARK  124  A    between atoms: _318  and  _319
REMARK  125  A    between atoms: _322  and  _324
REMARK  126  A    between atoms: _324  and  _325
REMARK  127  A    between atoms: _324  and  _327
REMARK  128  A    between atoms: _327  and  _328
REMARK  129  A    between atoms: _331  and  _333
REMARK  130  A    between atoms: _333  and  _334
REMARK  131  A    between atoms: _333  and  _336
REMARK  132  A    between atoms: _336  and  _337
REMARK  133  A    between atoms: _343  and  _345
REMARK  134  A    between atoms: _345  and  _346
REMARK  135  A    between atoms: _348  and  _350
REMARK  136  A    between atoms: _350  and  _351
REMARK  137  A    between atoms: _350  and  _353
REMARK  138  A    between atoms: _353  and  _354
REMARK  139  A    between atoms: _357  and  _359
REMARK  140  A    between atoms: _359  and  _360
REMARK  141  A    between atoms: _363  and  _365
REMARK  142  A    between atoms: _365  and  _366
REMARK  143  A    between atoms: _365  and  _368
REMARK  144  A    between atoms: _368  and  _369
REMARK  145  A    between atoms: _379  and  _381
REMARK  146  A    between atoms: _381  and  _382
REMARK  147  A    between atoms: _381  and  _384
REMARK  148  A    between atoms: _384  and  _385
REMARK  149  A    between atoms: _387  and  _389
REMARK  150  A    between atoms: _389  and  _390
REMARK  151  A    between atoms: _389  and  _392
REMARK  152  A    between atoms: _392  and  _393
REMARK  153  A    between atoms: _398  and  _399
REMARK  154  A    between atoms: _401  and  _403
REMARK  155  A    between atoms: _403  and  _404
REMARK  156  A    between atoms: _403  and  _406
REMARK  157  A    between atoms: _406  and  _407
REMARK  158  A    between atoms: _412  and  _413
REMARK  159  A    between atoms: _415  and  _417
REMARK  160  A    between atoms: _417  and  _418
REMARK  161  A    between atoms: _417  and  _420
REMARK  162  A    between atoms: _420  and  _421
REMARK  163  A    between atoms: _424  and  _426
REMARK  164  A    between atoms: _426  and  _427
REMARK  165  A    between atoms: _429  and  _431
REMARK  166  A    between atoms: _431  and  _432
REMARK  167  A    between atoms: _431  and  _434
REMARK  168  A    between atoms: _434  and  _435
REMARK  169  A    between atoms: _440  and  _441
REMARK  170  A    between atoms: _443  and  _445
REMARK  171  A    between atoms: _445  and  _446
REMARK  172  A    between atoms: _445  and  _448
REMARK  173  A    between atoms: _448  and  _449
REMARK  174  A    between atoms: _452  and  _454
REMARK  175  A    between atoms: _454  and  _455
REMARK  176  A    between atoms: _454  and  _457
REMARK  177  A    between atoms: _457  and  _458
REMARK  178  A    between atoms: _458  and  _459
REMARK  179  A    between atoms: _459  and  _460
REMARK  180  A    between atoms: _469  and  _471
REMARK  181  A    between atoms: _471  and  _472
REMARK  182  A    between atoms: _471  and  _474
REMARK  183  A    between atoms: _474  and  _475
REMARK  184  A    between atoms: _478  and  _480
REMARK  185  A    between atoms: _480  and  _481
REMARK  186  A    between atoms: _480  and  _483
REMARK  187  A    between atoms: _483  and  _484
REMARK  188  A    between atoms: _487  and  _489
REMARK  189  A    between atoms: _489  and  _490
REMARK  190  A    between atoms: _489  and  _492
REMARK  191  A    between atoms: _492  and  _493
REMARK  192  A    between atoms: _493  and  _494
REMARK  193  A    between atoms: _494  and  _495
REMARK  194  A    between atoms: _504  and  _506
REMARK  195  A    between atoms: _506  and  _507
REMARK  196  A    between atoms: _506  and  _509
REMARK  197  A    between atoms: _509  and  _510
REMARK  198  A    between atoms: _513  and  _515
REMARK  199  A    between atoms: _515  and  _516
REMARK  200  A    between atoms: _515  and  _518
REMARK  201  A    between atoms: _518  and  _519
REMARK  202  A    between atoms: _519  and  _520
REMARK  203  A    between atoms: _520  and  _521
REMARK  204  A    between atoms: _521  and  _522
REMARK  205  A    between atoms: _526  and  _528
REMARK  206  A    between atoms: _528  and  _529
REMARK  207  A    between atoms: _528  and  _531
REMARK  208  A    between atoms: _531  and  _532
REMARK  209  A    between atoms: _532  and  _533
REMARK  210  A    between atoms: _538  and  _540
REMARK  211  A    between atoms: _540  and  _541
REMARK  212  A    between atoms: _540  and  _543
REMARK  213  A    between atoms: _543  and  _544
REMARK  214  A    between atoms: _549  and  _551
REMARK  215  A    between atoms: _551  and  _552
REMARK  216  A    between atoms: _555  and  _557
REMARK  217  A    between atoms: _557  and  _558
REMARK  218  A    between atoms: _557  and  _560
REMARK  219  A    between atoms: _560  and  _561
REMARK  220  A    between atoms: _564  and  _566
REMARK  221  A    between atoms: _566  and  _567
REMARK  222  A    between atoms: _566  and  _569
REMARK  223  A    between atoms: _569  and  _570
REMARK  224  A    between atoms: _570  and  _571
REMARK  225  A    between atoms: _571  and  _572
REMARK  226  A    between atoms: _581  and  _583
REMARK  227  A    between atoms: _583  and  _584
REMARK  228  A    between atoms: _583  and  _586
REMARK  229  A    between atoms: _589  and  _591
REMARK  230  A    between atoms: _591  and  _592
REMARK  231  A    between atoms: _591  and  _594
REMARK  232  A    between atoms: _594  and  _595
REMARK  233  A    between atoms: _600  and  _601
REMARK  234  A    between atoms: _603  and  _605
REMARK  235  A    between atoms: _605  and  _606
REMARK  236  A    between atoms: _605  and  _608
REMARK  237  A    between atoms: _608  and  _609
REMARK  238  A    between atoms: _611  and  _613
REMARK  239  A    between atoms: _613  and  _614
REMARK  240  A    between atoms: _613  and  _616
REMARK  241  A    between atoms: _616  and  _617
REMARK  242  A    between atoms: _622  and  _624
REMARK  243  A    between atoms: _624  and  _625
REMARK  244  A    between atoms: _624  and  _627
REMARK  245  A    between atoms: _627  and  _628
REMARK  246  A    between atoms: _628  and  _629
REMARK  247  A    between atoms: _632  and  _634
REMARK  248  A    between atoms: _634  and  _635
REMARK  249  A    between atoms: _634  and  _637
REMARK  250  A    between atoms: _637  and  _638
REMARK  251  A    between atoms: _643  and  _644
REMARK  252  A    between atoms: _646  and  _648
REMARK  253  A    between atoms: _648  and  _649
REMARK  254  A    between atoms: _652  and  _654
REMARK  255  A    between atoms: _654  and  _655
REMARK  256  A    between atoms: _654  and  _657
REMARK  257  A    between atoms: _657  and  _658
REMARK  258  A    between atoms: _662  and  _663
REMARK  259  A    between atoms: _668  and  _670
REMARK  260  A    between atoms: _670  and  _671
REMARK  261  A    between atoms: _670  and  _673
REMARK  262  A    between atoms: _673  and  _674
REMARK  263  A    between atoms: _677  and  _679
REMARK  264  A    between atoms: _679  and  _680
REMARK  265  A    between atoms: _679  and  _682
REMARK  266  A    between atoms: _682  and  _683
REMARK  267  A    between atoms: _683  and  _684
REMARK  268  A    between atoms: _689  and  _691
REMARK  269  A    between atoms: _691  and  _692
REMARK  270  A    between atoms: _691  and  _694
REMARK  271  A    between atoms: _694  and  _695
REMARK  272  A    between atoms: _698  and  _700
REMARK  273  A    between atoms: _700  and  _701
REMARK  274  A    between atoms: _700  and  _703
REMARK  275  A    between atoms: _703  and  _704
REMARK  276  A    between atoms: _707  and  _709
REMARK  277  A    between atoms: _709  and  _710
REMARK  278  A    between atoms: _709  and  _712
REMARK  279  A    between atoms: _712  and  _713
REMARK                            x       y       z     vdW  Elec       q    Type
REMARK                         _______ _______ _______ _____ _____    ______ ____
ROOT
ATOM      1  O   HOH     1     -60.484   7.059  71.924  0.00  0.00    +0.000 OA
ENDROOT
TORSDOF 0
REMARK  Name = ../refined-set-2016/4loh/4loh_pocket.pdb
REMARK  279 active torsions:
REMARK  status: ('A' for Active; 'I' for Inactive)
REMARK    1  A    between atoms: _1  and  _3
REMARK    2  A    between atoms: _3  and  _4
REMARK    3  A    between atoms: _6  and  _8
REMARK    4  A    between atoms: _8  and  _9
REMARK    5  A    between atoms: _8  and  _11
REMARK    6  A    between atoms: _11  and  _12
REMARK    7  A    between atoms: _15  and  _17
REMARK    8  A    between atoms: _17  and  _18
REMARK    9  A    between atoms: _21  and  _23
REMARK   10  A    between atoms: _23  and  _24
REMARK   11  A    between atoms: _23  and  _26
REMARK   12  A    between atoms: _26  and  _27
REMARK   13  A    between atoms: _37  and  _39
REMARK   14  A    between atoms: _39  and  _40
REMARK   15  A    between atoms: _39  and  _42
REMARK   16  A    between atoms: _42  and  _43
REMARK   17  A    between atoms: _45  and  _47
REMARK   18  A    between atoms: _47  and  _48
REMARK   19  A    between atoms: _47  and  _50
REMARK   20  A    between atoms: _50  and  _51
REMARK   21  A    between atoms: _56  and  _57
REMARK   22  A    between atoms: _59  and  _61
REMARK   23  A    between atoms: _61  and  _62
REMARK   24  A    between atoms: _61  and  _64
REMARK   25  A    between atoms: _64  and  _65
REMARK   26  A    between atoms: _70  and  _71
REMARK   27  A    between atoms: _73  and  _75
REMARK   28  A    between atoms: _75  and  _76
REMARK   29  A    between atoms: _75  and  _78
REMARK   30  A    between atoms: _78  and  _79
REMARK   31  A    between atoms: _82  and  _84
REMARK   32  A    between atoms: _84  and  _85
REMARK   33  A    between atoms: _87  and  _89
REMARK   34  A    between atoms: _89  and  _90
REMARK   35  A    between atoms: _89  and  _92
REMARK   36  A    between atoms: _92  and  _93
REMARK   37  A    between atoms: _98  and  _99
REMARK   38  A    between atoms: _101  and  _103
REMARK   39  A    between atoms: _103  and  _104
REMARK   40  A    between atoms: _103  and  _106
REMARK   41  A    between atoms: _106  and  _107
REMARK   42  A    between atoms: _110  and  _112
REMARK   43  A    between atoms: _112  and  _113
REMARK   44  A    between atoms: _112  and  _115
REMARK   45  A    between atoms: _115  and  _116
REMARK   46  A    between atoms: _116  and  _117
REMARK   47  A    between atoms: _117  and  _118
REMARK   48  A    between atoms: _127  and  _129
REMARK   49  A    between atoms: _129  and  _130
REMARK   50  A    between atoms: _129  and  _132
REMARK   51  A    between atoms: _132  and  _133
REMARK   52  A    between atoms: _136  and  _138
REMARK   53  A    between atoms: _138  and  _139
REMARK   54  A    between atoms: _138  and  _141
REMARK   55  A    between atoms: _141  and  _142
REMARK   56  A    between atoms: _145  and  _147
REMARK   57  A    between atoms: _147  and  _148
REMARK   58  A    between atoms: _147  and  _150
REMARK   59  A    between atoms: _150  and  _151
REMARK   60  A    between atoms: _151  and  _152
REMARK   61  A    between atoms: _157  and  _159
REMARK   62  A    between atoms: _159  and  _160
REMARK   63  A    between atoms: _159  and  _162
REMARK   64  A    between atoms: _162  and  _163
REMARK   65  A    between atoms: _168  and  _170
REMARK   66  A    between atoms: _170  and  _171
REMARK   67  A    between atoms: _174  and  _176
REMARK   68  A    between atoms: _176  and  _177
REMARK   69  A    between atoms: _179  and  _181
REMARK   70  A    between atoms: _181  and  _182
REMARK   71  A    between atoms: _181  and  _184
REMARK   72  A    between atoms: _184  and  _185
REMARK   73  A    between atoms: _188  and  _190
REMARK   74  A    between atoms: _190  and  _191
REMARK   75  A    between atoms: _190  and  _193
REMARK   76  A    between atoms: _193  and  _194
REMARK   77  A    between atoms: _194  and  _195
REMARK   78  A    between atoms: _195  and  _196
REMARK   79  A    between atoms: _205  and  _207
REMARK   80  A    between atoms: _207  and  _208
REMARK   81  A    between atoms: _207  and  _210
REMARK   82  A    between atoms: _213  and  _215
REMARK   83  A    between atoms: _215  and  _216
REMARK   84  A    between atoms: _215  and  _218
REMARK   85  A    between atoms: _218  and  _219
REMARK   86  A    between atoms: _224  and  _225
REMARK   87  A    between atoms: _227  and  _229
REMARK   88  A    between atoms: _229  and  _230
REMARK   89  A    between atoms: _229  and  _232
REMARK   90  A    between atoms: _232  and  _233
REMARK   91  A    between atoms: _235  and  _237
REMARK   92  A    between atoms: _237  and  _238
REMARK   93  A    between atoms: _237  and  _240
REMARK   94  A    between atoms: _240  and  _241
REMARK   95  A    between atoms: _246  and  _248
REMARK   96  A    between atoms: _248  and  _249
REMARK   97  A    between atoms: _248  and  _251
REMARK   98  A    between atoms: _251  and  _252
REMARK   99  A    between atoms: _252  and  _253
REMARK  100  A    between atoms: _256  and  _258
REMARK  101  A    between atoms: _258  and  _259
REMARK  102  A    between atoms: _258  and  _261
REMARK  103  A    between atoms: _261  and  _262
REMARK  104  A    between atoms: _267  and  _268
REMARK  105  A    between atoms: _270  and  _272
REMARK  106  A    between atoms: _272  and  _273
REMARK  107  A    between atoms: _276  and  _278
REMARK  108  A    between atoms: _278  and  _279
REMARK  109  A    between atoms: _278  and  _281
REMARK  110  A    between atoms: _281  and  _282
REMARK  111  A    between atoms: _286  and  _287
REMARK  112  A    between atoms: _292  and  _294
REMARK  113  A    between atoms: _294  and  _295
REMARK  114  A    between atoms: _294  and  _297
REMARK  115  A    between atoms: _297  and  _298
REMARK  116  A    between atoms: _301  and  _303
REMARK  117  A    between atoms: _303  and  _304
REMARK  118  A    between atoms: _303  and  _306
REMARK  119  A    between atoms: _306  and  _307
REMARK  120  A    between atoms: _307  and  _308
REMARK  121  A    between atoms: _313  and  _315
REMARK  122  A    between atoms: _315  and  _316
REMARK  123  A    between atoms: _315  and  _318
REMARK  124  A    between atoms: _318  and  _319
REMARK  125  A    between atoms: _322  and  _324
REMARK  126  A    between atoms: _324  and  _325
REMARK  127  A    between atoms: _324  and  _327
REMARK  128  A    between atoms: _327  and  _328
REMARK  129  A    between atoms: _331  and  _333
REMARK  130  A    between atoms: _333  and  _334
REMARK  131  A    between atoms: _333  and  _336
REMARK  132  A    between atoms: _336  and  _337
REMARK  133  A    between atoms: _343  and  _345
REMARK  134  A    between atoms: _345  and  _346
REMARK  135  A    between atoms: _348  and  _350
REMARK  136  A    between atoms: _350  and  _351
REMARK  137  A    between atoms: _350  and  _353
REMARK  138  A    between atoms: _353  and  _354
REMARK  139  A    between atoms: _357  and  _359
REMARK  140  A    between atoms: _359  and  _360
REMARK  141  A    between atoms: _363  and  _365
REMARK  142  A    between atoms: _365  and  _366
REMARK  143  A    between atoms: _365  and  _368
REMARK  144  A    between atoms: _368  and  _369
REMARK  145  A    between atoms: _379  and  _381
REMARK  146  A    between atoms: _381  and  _382
REMARK  147  A    between atoms: _381  and  _384
REMARK  148  A    between atoms: _384  and  _385
REMARK  149  A    between atoms: _387  and  _389
REMARK  150  A    between atoms: _389  and  _390
REMARK  151  A    between atoms: _389  and  _392
REMARK  152  A    between atoms: _392  and  _393
REMARK  153  A    between atoms: _398  and  _399
REMARK  154  A    between atoms: _401  and  _403
REMARK  155  A    between atoms: _403  and  _404
REMARK  156  A    between atoms: _403  and  _406
REMARK  157  A    between atoms: _406  and  _407
REMARK  158  A    between atoms: _412  and  _413
REMARK  159  A    between atoms: _415  and  _417
REMARK  160  A    between atoms: _417  and  _418
REMARK  161  A    between atoms: _417  and  _420
REMARK  162  A    between atoms: _420  and  _421
REMARK  163  A    between atoms: _424  and  _426
REMARK  164  A    between atoms: _426  and  _427
REMARK  165  A    between atoms: _429  and  _431
REMARK  166  A    between atoms: _431  and  _432
REMARK  167  A    between atoms: _431  and  _434
REMARK  168  A    between atoms: _434  and  _435
REMARK  169  A    between atoms: _440  and  _441
REMARK  170  A    between atoms: _443  and  _445
REMARK  171  A    between atoms: _445  and  _446
REMARK  172  A    between atoms: _445  and  _448
REMARK  173  A    between atoms: _448  and  _449
REMARK  174  A    between atoms: _452  and  _454
REMARK  175  A    between atoms: _454  and  _455
REMARK  176  A    between atoms: _454  and  _457
REMARK  177  A    between atoms: _457  and  _458
REMARK  178  A    between atoms: _458  and  _459
REMARK  179  A    between atoms: _459  and  _460
REMARK  180  A    between atoms: _469  and  _471
REMARK  181  A    between atoms: _471  and  _472
REMARK  182  A    between atoms: _471  and  _474
REMARK  183  A    between atoms: _474  and  _475
REMARK  184  A    between atoms: _478  and  _480
REMARK  185  A    between atoms: _480  and  _481
REMARK  186  A    between atoms: _480  and  _483
REMARK  187  A    between atoms: _483  and  _484
REMARK  188  A    between atoms: _487  and  _489
REMARK  189  A    between atoms: _489  and  _490
REMARK  190  A    between atoms: _489  and  _492
REMARK  191  A    between atoms: _492  and  _493
REMARK  192  A    between atoms: _493  and  _494
REMARK  193  A    between atoms: _494  and  _495
REMARK  194  A    between atoms: _504  and  _506
REMARK  195  A    between atoms: _506  and  _507
REMARK  196  A    between atoms: _506  and  _509
REMARK  197  A    between atoms: _509  and  _510
REMARK  198  A    between atoms: _513  and  _515
REMARK  199  A    between atoms: _515  and  _516
REMARK  200  A    between atoms: _515  and  _518
REMARK  201  A    between atoms: _518  and  _519
REMARK  202  A    between atoms: _519  and  _520
REMARK  203  A    between atoms: _520  and  _521
REMARK  204  A    between atoms: _521  and  _522
REMARK  205  A    between atoms: _526  and  _528
REMARK  206  A    between atoms: _528  and  _529
REMARK  207  A    between atoms: _528  and  _531
REMARK  208  A    between atoms: _531  and  _532
REMARK  209  A    between atoms: _532  and  _533
REMARK  210  A    between atoms: _538  and  _540
REMARK  211  A    between atoms: _540  and  _541
REMARK  212  A    between atoms: _540  and  _543
REMARK  213  A    between atoms: _543  and  _544
REMARK  214  A    between atoms: _549  and  _551
REMARK  215  A    between atoms: _551  and  _552
REMARK  216  A    between atoms: _555  and  _557
REMARK  217  A    between atoms: _557  and  _558
REMARK  218  A    between atoms: _557  and  _560
REMARK  219  A    between atoms: _560  and  _561
REMARK  220  A    between atoms: _564  and  _566
REMARK  221  A    between atoms: _566  and  _567
REMARK  222  A    between atoms: _566  and  _569
REMARK  223  A    between atoms: _569  and  _570
REMARK  224  A    between atoms: _570  and  _571
REMARK  225  A    between atoms: _571  and  _572
REMARK  226  A    between atoms: _581  and  _583
REMARK  227  A    between atoms: _583  and  _584
REMARK  228  A    between atoms: _583  and  _586
REMARK  229  A    between atoms: _589  and  _591
REMARK  230  A    between atoms: _591  and  _592
REMARK  231  A    between atoms: _591  and  _594
REMARK  232  A    between atoms: _594  and  _595
REMARK  233  A    between atoms: _600  and  _601
REMARK  234  A    between atoms: _603  and  _605
REMARK  235  A    between atoms: _605  and  _606
REMARK  236  A    between atoms: _605  and  _608
REMARK  237  A    between atoms: _608  and  _609
REMARK  238  A    between atoms: _611  and  _613
REMARK  239  A    between atoms: _613  and  _614
REMARK  240  A    between atoms: _613  and  _616
REMARK  241  A    between atoms: _616  and  _617
REMARK  242  A    between atoms: _622  and  _624
REMARK  243  A    between atoms: _624  and  _625
REMARK  244  A    between atoms: _624  and  _627
REMARK  245  A    between atoms: _627  and  _628
REMARK  246  A    between atoms: _628  and  _629
REMARK  247  A    between atoms: _632  and  _634
REMARK  248  A    between atoms: _634  and  _635
REMARK  249  A    between atoms: _634  and  _637
REMARK  250  A    between atoms: _637  and  _638
REMARK  251  A    between atoms: _643  and  _644
REMARK  252  A    between atoms: _646  and  _648
REMARK  253  A    between atoms: _648  and  _649
REMARK  254  A    between atoms: _652  and  _654
REMARK  255  A    between atoms: _654  and  _655
REMARK  256  A    between atoms: _654  and  _657
REMARK  257  A    between atoms: _657  and  _658
REMARK  258  A    between atoms: _662  and  _663
REMARK  259  A    between atoms: _668  and  _670
REMARK  260  A    between atoms: _670  and  _671
REMARK  261  A    between atoms: _670  and  _673
REMARK  262  A    between atoms: _673  and  _674
REMARK  263  A    between atoms: _677  and  _679
REMARK  264  A    between atoms: _679  and  _680
REMARK  265  A    between atoms: _679  and  _682
REMARK  266  A    between atoms: _682  and  _683
REMARK  267  A    between atoms: _683  and  _684
REMARK  268  A    between atoms: _689  and  _691
REMARK  269  A    between atoms: _691  and  _692
REMARK  270  A    between atoms: _691  and  _694
REMARK  271  A    between atoms: _694  and  _695
REMARK  272  A    between atoms: _698  and  _700
REMARK  273  A    between atoms: _700  and  _701
REMARK  274  A    between atoms: _700  and  _703
REMARK  275  A    between atoms: _703  and  _704
REMARK  276  A    between atoms: _707  and  _709
REMARK  277  A    between atoms: _709  and  _710
REMARK  278  A    between atoms: _709  and  _712
REMARK  279  A    between atoms: _712  and  _713
REMARK                            x       y       z     vdW  Elec       q    Type
REMARK                         _______ _______ _______ _____ _____    ______ ____
ROOT
ATOM      1  O   HOH     1     -55.804   1.083  76.888  0.00  0.00    +0.000 OA
ENDROOT
TORSDOF 0
REMARK  Name = ../refined-set-2016/4loh/4loh_pocket.pdb
REMARK  279 active torsions:
REMARK  status: ('A' for Active; 'I' for Inactive)
REMARK    1  A    between atoms: _1  and  _3
REMARK    2  A    between atoms: _3  and  _4
REMARK    3  A    between atoms: _6  and  _8
REMARK    4  A    between atoms: _8  and  _9
REMARK    5  A    between atoms: _8  and  _11
REMARK    6  A    between atoms: _11  and  _12
REMARK    7  A    between atoms: _15  and  _17
REMARK    8  A    between atoms: _17  and  _18
REMARK    9  A    between atoms: _21  and  _23
REMARK   10  A    between atoms: _23  and  _24
REMARK   11  A    between atoms: _23  and  _26
REMARK   12  A    between atoms: _26  and  _27
REMARK   13  A    between atoms: _37  and  _39
REMARK   14  A    between atoms: _39  and  _40
REMARK   15  A    between atoms: _39  and  _42
REMARK   16  A    between atoms: _42  and  _43
REMARK   17  A    between atoms: _45  and  _47
REMARK   18  A    between atoms: _47  and  _48
REMARK   19  A    between atoms: _47  and  _50
REMARK   20  A    between atoms: _50  and  _51
REMARK   21  A    between atoms: _56  and  _57
REMARK   22  A    between atoms: _59  and  _61
REMARK   23  A    between atoms: _61  and  _62
REMARK   24  A    between atoms: _61  and  _64
REMARK   25  A    between atoms: _64  and  _65
REMARK   26  A    between atoms: _70  and  _71
REMARK   27  A    between atoms: _73  and  _75
REMARK   28  A    between atoms: _75  and  _76
REMARK   29  A    between atoms: _75  and  _78
REMARK   30  A    between atoms: _78  and  _79
REMARK   31  A    between atoms: _82  and  _84
REMARK   32  A    between atoms: _84  and  _85
REMARK   33  A    between atoms: _87  and  _89
REMARK   34  A    between atoms: _89  and  _90
REMARK   35  A    between atoms: _89  and  _92
REMARK   36  A    between atoms: _92  and  _93
REMARK   37  A    between atoms: _98  and  _99
REMARK   38  A    between atoms: _101  and  _103
REMARK   39  A    between atoms: _103  and  _104
REMARK   40  A    between atoms: _103  and  _106
REMARK   41  A    between atoms: _106  and  _107
REMARK   42  A    between atoms: _110  and  _112
REMARK   43  A    between atoms: _112  and  _113
REMARK   44  A    between atoms: _112  and  _115
REMARK   45  A    between atoms: _115  and  _116
REMARK   46  A    between atoms: _116  and  _117
REMARK   47  A    between atoms: _117  and  _118
REMARK   48  A    between atoms: _127  and  _129
REMARK   49  A    between atoms: _129  and  _130
REMARK   50  A    between atoms: _129  and  _132
REMARK   51  A    between atoms: _132  and  _133
REMARK   52  A    between atoms: _136  and  _138
REMARK   53  A    between atoms: _138  and  _139
REMARK   54  A    between atoms: _138  and  _141
REMARK   55  A    between atoms: _141  and  _142
REMARK   56  A    between atoms: _145  and  _147
REMARK   57  A    between atoms: _147  and  _148
REMARK   58  A    between atoms: _147  and  _150
REMARK   59  A    between atoms: _150  and  _151
REMARK   60  A    between atoms: _151  and  _152
REMARK   61  A    between atoms: _157  and  _159
REMARK   62  A    between atoms: _159  and  _160
REMARK   63  A    between atoms: _159  and  _162
REMARK   64  A    between atoms: _162  and  _163
REMARK   65  A    between atoms: _168  and  _170
REMARK   66  A    between atoms: _170  and  _171
REMARK   67  A    between atoms: _174  and  _176
REMARK   68  A    between atoms: _176  and  _177
REMARK   69  A    between atoms: _179  and  _181
REMARK   70  A    between atoms: _181  and  _182
REMARK   71  A    between atoms: _181  and  _184
REMARK   72  A    between atoms: _184  and  _185
REMARK   73  A    between atoms: _188  and  _190
REMARK   74  A    between atoms: _190  and  _191
REMARK   75  A    between atoms: _190  and  _193
REMARK   76  A    between atoms: _193  and  _194
REMARK   77  A    between atoms: _194  and  _195
REMARK   78  A    between atoms: _195  and  _196
REMARK   79  A    between atoms: _205  and  _207
REMARK   80  A    between atoms: _207  and  _208
REMARK   81  A    between atoms: _207  and  _210
REMARK   82  A    between atoms: _213  and  _215
REMARK   83  A    between atoms: _215  and  _216
REMARK   84  A    between atoms: _215  and  _218
REMARK   85  A    between atoms: _218  and  _219
REMARK   86  A    between atoms: _224  and  _225
REMARK   87  A    between atoms: _227  and  _229
REMARK   88  A    between atoms: _229  and  _230
REMARK   89  A    between atoms: _229  and  _232
REMARK   90  A    between atoms: _232  and  _233
REMARK   91  A    between atoms: _235  and  _237
REMARK   92  A    between atoms: _237  and  _238
REMARK   93  A    between atoms: _237  and  _240
REMARK   94  A    between atoms: _240  and  _241
REMARK   95  A    between atoms: _246  and  _248
REMARK   96  A    between atoms: _248  and  _249
REMARK   97  A    between atoms: _248  and  _251
REMARK   98  A    between atoms: _251  and  _252
REMARK   99  A    between atoms: _252  and  _253
REMARK  100  A    between atoms: _256  and  _258
REMARK  101  A    between atoms: _258  and  _259
REMARK  102  A    between atoms: _258  and  _261
REMARK  103  A    between atoms: _261  and  _262
REMARK  104  A    between atoms: _267  and  _268
REMARK  105  A    between atoms: _270  and  _272
REMARK  106  A    between atoms: _272  and  _273
REMARK  107  A    between atoms: _276  and  _278
REMARK  108  A    between atoms: _278  and  _279
REMARK  109  A    between atoms: _278  and  _281
REMARK  110  A    between atoms: _281  and  _282
REMARK  111  A    between atoms: _286  and  _287
REMARK  112  A    between atoms: _292  and  _294
REMARK  113  A    between atoms: _294  and  _295
REMARK  114  A    between atoms: _294  and  _297
REMARK  115  A    between atoms: _297  and  _298
REMARK  116  A    between atoms: _301  and  _303
REMARK  117  A    between atoms: _303  and  _304
REMARK  118  A    between atoms: _303  and  _306
REMARK  119  A    between atoms: _306  and  _307
REMARK  120  A    between atoms: _307  and  _308
REMARK  121  A    between atoms: _313  and  _315
REMARK  122  A    between atoms: _315  and  _316
REMARK  123  A    between atoms: _315  and  _318
REMARK  124  A    between atoms: _318  and  _319
REMARK  125  A    between atoms: _322  and  _324
REMARK  126  A    between atoms: _324  and  _325
REMARK  127  A    between atoms: _324  and  _327
REMARK  128  A    between atoms: _327  and  _328
REMARK  129  A    between atoms: _331  and  _333
REMARK  130  A    between atoms: _333  and  _334
REMARK  131  A    between atoms: _333  and  _336
REMARK  132  A    between atoms: _336  and  _337
REMARK  133  A    between atoms: _343  and  _345
REMARK  134  A    between atoms: _345  and  _346
REMARK  135  A    between atoms: _348  and  _350
REMARK  136  A    between atoms: _350  and  _351
REMARK  137  A    between atoms: _350  and  _353
REMARK  138  A    between atoms: _353  and  _354
REMARK  139  A    between atoms: _357  and  _359
REMARK  140  A    between atoms: _359  and  _360
REMARK  141  A    between atoms: _363  and  _365
REMARK  142  A    between atoms: _365  and  _366
REMARK  143  A    between atoms: _365  and  _368
REMARK  144  A    between atoms: _368  and  _369
REMARK  145  A    between atoms: _379  and  _381
REMARK  146  A    between atoms: _381  and  _382
REMARK  147  A    between atoms: _381  and  _384
REMARK  148  A    between atoms: _384  and  _385
REMARK  149  A    between atoms: _387  and  _389
REMARK  150  A    between atoms: _389  and  _390
REMARK  151  A    between atoms: _389  and  _392
REMARK  152  A    between atoms: _392  and  _393
REMARK  153  A    between atoms: _398  and  _399
REMARK  154  A    between atoms: _401  and  _403
REMARK  155  A    between atoms: _403  and  _404
REMARK  156  A    between atoms: _403  and  _406
REMARK  157  A    between atoms: _406  and  _407
REMARK  158  A    between atoms: _412  and  _413
REMARK  159  A    between atoms: _415  and  _417
REMARK  160  A    between atoms: _417  and  _418
REMARK  161  A    between atoms: _417  and  _420
REMARK  162  A    between atoms: _420  and  _421
REMARK  163  A    between atoms: _424  and  _426
REMARK  164  A    between atoms: _426  and  _427
REMARK  165  A    between atoms: _429  and  _431
REMARK  166  A    between atoms: _431  and  _432
REMARK  167  A    between atoms: _431  and  _434
REMARK  168  A    between atoms: _434  and  _435
REMARK  169  A    between atoms: _440  and  _441
REMARK  170  A    between atoms: _443  and  _445
REMARK  171  A    between atoms: _445  and  _446
REMARK  172  A    between atoms: _445  and  _448
REMARK  173  A    between atoms: _448  and  _449
REMARK  174  A    between atoms: _452  and  _454
REMARK  175  A    between atoms: _454  and  _455
REMARK  176  A    between atoms: _454  and  _457
REMARK  177  A    between atoms: _457  and  _458
REMARK  178  A    between atoms: _458  and  _459
REMARK  179  A    between atoms: _459  and  _460
REMARK  180  A    between atoms: _469  and  _471
REMARK  181  A    between atoms: _471  and  _472
REMARK  182  A    between atoms: _471  and  _474
REMARK  183  A    between atoms: _474  and  _475
REMARK  184  A    between atoms: _478  and  _480
REMARK  185  A    between atoms: _480  and  _481
REMARK  186  A    between atoms: _480  and  _483
REMARK  187  A    between atoms: _483  and  _484
REMARK  188  A    between atoms: _487  and  _489
REMARK  189  A    between atoms: _489  and  _490
REMARK  190  A    between atoms: _489  and  _492
REMARK  191  A    between atoms: _492  and  _493
REMARK  192  A    between atoms: _493  and  _494
REMARK  193  A    between atoms: _494  and  _495
REMARK  194  A    between atoms: _504  and  _506
REMARK  195  A    between atoms: _506  and  _507
REMARK  196  A    between atoms: _506  and  _509
REMARK  197  A    between atoms: _509  and  _510
REMARK  198  A    between atoms: _513  and  _515
REMARK  199  A    between atoms: _515  and  _516
REMARK  200  A    between atoms: _515  and  _518
REMARK  201  A    between atoms: _518  and  _519
REMARK  202  A    between atoms: _519  and  _520
REMARK  203  A    between atoms: _520  and  _521
REMARK  204  A    between atoms: _521  and  _522
REMARK  205  A    between atoms: _526  and  _528
REMARK  206  A    between atoms: _528  and  _529
REMARK  207  A    between atoms: _528  and  _531
REMARK  208  A    between atoms: _531  and  _532
REMARK  209  A    between atoms: _532  and  _533
REMARK  210  A    between atoms: _538  and  _540
REMARK  211  A    between atoms: _540  and  _541
REMARK  212  A    between atoms: _540  and  _543
REMARK  213  A    between atoms: _543  and  _544
REMARK  214  A    between atoms: _549  and  _551
REMARK  215  A    between atoms: _551  and  _552
REMARK  216  A    between atoms: _555  and  _557
REMARK  217  A    between atoms: _557  and  _558
REMARK  218  A    between atoms: _557  and  _560
REMARK  219  A    between atoms: _560  and  _561
REMARK  220  A    between atoms: _564  and  _566
REMARK  221  A    between atoms: _566  and  _567
REMARK  222  A    between atoms: _566  and  _569
REMARK  223  A    between atoms: _569  and  _570
REMARK  224  A    between atoms: _570  and  _571
REMARK  225  A    between atoms: _571  and  _572
REMARK  226  A    between atoms: _581  and  _583
REMARK  227  A    between atoms: _583  and  _584
REMARK  228  A    between atoms: _583  and  _586
REMARK  229  A    between atoms: _589  and  _591
REMARK  230  A    between atoms: _591  and  _592
REMARK  231  A    between atoms: _591  and  _594
REMARK  232  A    between atoms: _594  and  _595
REMARK  233  A    between atoms: _600  and  _601
REMARK  234  A    between atoms: _603  and  _605
REMARK  235  A    between atoms: _605  and  _606
REMARK  236  A    between atoms: _605  and  _608
REMARK  237  A    between atoms: _608  and  _609
REMARK  238  A    between atoms: _611  and  _613
REMARK  239  A    between atoms: _613  and  _614
REMARK  240  A    between atoms: _613  and  _616
REMARK  241  A    between atoms: _616  and  _617
REMARK  242  A    between atoms: _622  and  _624
REMARK  243  A    between atoms: _624  and  _625
REMARK  244  A    between atoms: _624  and  _627
REMARK  245  A    between atoms: _627  and  _628
REMARK  246  A    between atoms: _628  and  _629
REMARK  247  A    between atoms: _632  and  _634
REMARK  248  A    between atoms: _634  and  _635
REMARK  249  A    between atoms: _634  and  _637
REMARK  250  A    between atoms: _637  and  _638
REMARK  251  A    between atoms: _643  and  _644
REMARK  252  A    between atoms: _646  and  _648
REMARK  253  A    between atoms: _648  and  _649
REMARK  254  A    between atoms: _652  and  _654
REMARK  255  A    between atoms: _654  and  _655
REMARK  256  A    between atoms: _654  and  _657
REMARK  257  A    between atoms: _657  and  _658
REMARK  258  A    between atoms: _662  and  _663
REMARK  259  A    between atoms: _668  and  _670
REMARK  260  A    between atoms: _670  and  _671
REMARK  261  A    between atoms: _670  and  _673
REMARK  262  A    between atoms: _673  and  _674
REMARK  263  A    between atoms: _677  and  _679
REMARK  264  A    between atoms: _679  and  _680
REMARK  265  A    between atoms: _679  and  _682
REMARK  266  A    between atoms: _682  and  _683
REMARK  267  A    between atoms: _683  and  _684
REMARK  268  A    between atoms: _689  and  _691
REMARK  269  A    between atoms: _691  and  _692
REMARK  270  A    between atoms: _691  and  _694
REMARK  271  A    between atoms: _694  and  _695
REMARK  272  A    between atoms: _698  and  _700
REMARK  273  A    between atoms: _700  and  _701
REMARK  274  A    between atoms: _700  and  _703
REMARK  275  A    between atoms: _703  and  _704
REMARK  276  A    between atoms: _707  and  _709
REMARK  277  A    between atoms: _709  and  _710
REMARK  278  A    between atoms: _709  and  _712
REMARK  279  A    between atoms: _712  and  _713
REMARK                            x       y       z     vdW  Elec       q    Type
REMARK                         _______ _______ _______ _____ _____    ______ ____
ROOT
ATOM      1  O   HOH     1     -58.300   3.504  77.604  0.00  0.00    +0.000 OA
ENDROOT
TORSDOF 0
REMARK  Name = ../refined-set-2016/4loh/4loh_pocket.pdb
REMARK  279 active torsions:
REMARK  status: ('A' for Active; 'I' for Inactive)
REMARK    1  A    between atoms: _1  and  _3
REMARK    2  A    between atoms: _3  and  _4
REMARK    3  A    between atoms: _6  and  _8
REMARK    4  A    between atoms: _8  and  _9
REMARK    5  A    between atoms: _8  and  _11
REMARK    6  A    between atoms: _11  and  _12
REMARK    7  A    between atoms: _15  and  _17
REMARK    8  A    between atoms: _17  and  _18
REMARK    9  A    between atoms: _21  and  _23
REMARK   10  A    between atoms: _23  and  _24
REMARK   11  A    between atoms: _23  and  _26
REMARK   12  A    between atoms: _26  and  _27
REMARK   13  A    between atoms: _37  and  _39
REMARK   14  A    between atoms: _39  and  _40
REMARK   15  A    between atoms: _39  and  _42
REMARK   16  A    between atoms: _42  and  _43
REMARK   17  A    between atoms: _45  and  _47
REMARK   18  A    between atoms: _47  and  _48
REMARK   19  A    between atoms: _47  and  _50
REMARK   20  A    between atoms: _50  and  _51
REMARK   21  A    between atoms: _56  and  _57
REMARK   22  A    between atoms: _59  and  _61
REMARK   23  A    between atoms: _61  and  _62
REMARK   24  A    between atoms: _61  and  _64
REMARK   25  A    between atoms: _64  and  _65
REMARK   26  A    between atoms: _70  and  _71
REMARK   27  A    between atoms: _73  and  _75
REMARK   28  A    between atoms: _75  and  _76
REMARK   29  A    between atoms: _75  and  _78
REMARK   30  A    between atoms: _78  and  _79
REMARK   31  A    between atoms: _82  and  _84
REMARK   32  A    between atoms: _84  and  _85
REMARK   33  A    between atoms: _87  and  _89
REMARK   34  A    between atoms: _89  and  _90
REMARK   35  A    between atoms: _89  and  _92
REMARK   36  A    between atoms: _92  and  _93
REMARK   37  A    between atoms: _98  and  _99
REMARK   38  A    between atoms: _101  and  _103
REMARK   39  A    between atoms: _103  and  _104
REMARK   40  A    between atoms: _103  and  _106
REMARK   41  A    between atoms: _106  and  _107
REMARK   42  A    between atoms: _110  and  _112
REMARK   43  A    between atoms: _112  and  _113
REMARK   44  A    between atoms: _112  and  _115
REMARK   45  A    between atoms: _115  and  _116
REMARK   46  A    between atoms: _116  and  _117
REMARK   47  A    between atoms: _117  and  _118
REMARK   48  A    between atoms: _127  and  _129
REMARK   49  A    between atoms: _129  and  _130
REMARK   50  A    between atoms: _129  and  _132
REMARK   51  A    between atoms: _132  and  _133
REMARK   52  A    between atoms: _136  and  _138
REMARK   53  A    between atoms: _138  and  _139
REMARK   54  A    between atoms: _138  and  _141
REMARK   55  A    between atoms: _141  and  _142
REMARK   56  A    between atoms: _145  and  _147
REMARK   57  A    between atoms: _147  and  _148
REMARK   58  A    between atoms: _147  and  _150
REMARK   59  A    between atoms: _150  and  _151
REMARK   60  A    between atoms: _151  and  _152
REMARK   61  A    between atoms: _157  and  _159
REMARK   62  A    between atoms: _159  and  _160
REMARK   63  A    between atoms: _159  and  _162
REMARK   64  A    between atoms: _162  and  _163
REMARK   65  A    between atoms: _168  and  _170
REMARK   66  A    between atoms: _170  and  _171
REMARK   67  A    between atoms: _174  and  _176
REMARK   68  A    between atoms: _176  and  _177
REMARK   69  A    between atoms: _179  and  _181
REMARK   70  A    between atoms: _181  and  _182
REMARK   71  A    between atoms: _181  and  _184
REMARK   72  A    between atoms: _184  and  _185
REMARK   73  A    between atoms: _188  and  _190
REMARK   74  A    between atoms: _190  and  _191
REMARK   75  A    between atoms: _190  and  _193
REMARK   76  A    between atoms: _193  and  _194
REMARK   77  A    between atoms: _194  and  _195
REMARK   78  A    between atoms: _195  and  _196
REMARK   79  A    between atoms: _205  and  _207
REMARK   80  A    between atoms: _207  and  _208
REMARK   81  A    between atoms: _207  and  _210
REMARK   82  A    between atoms: _213  and  _215
REMARK   83  A    between atoms: _215  and  _216
REMARK   84  A    between atoms: _215  and  _218
REMARK   85  A    between atoms: _218  and  _219
REMARK   86  A    between atoms: _224  and  _225
REMARK   87  A    between atoms: _227  and  _229
REMARK   88  A    between atoms: _229  and  _230
REMARK   89  A    between atoms: _229  and  _232
REMARK   90  A    between atoms: _232  and  _233
REMARK   91  A    between atoms: _235  and  _237
REMARK   92  A    between atoms: _237  and  _238
REMARK   93  A    between atoms: _237  and  _240
REMARK   94  A    between atoms: _240  and  _241
REMARK   95  A    between atoms: _246  and  _248
REMARK   96  A    between atoms: _248  and  _249
REMARK   97  A    between atoms: _248  and  _251
REMARK   98  A    between atoms: _251  and  _252
REMARK   99  A    between atoms: _252  and  _253
REMARK  100  A    between atoms: _256  and  _258
REMARK  101  A    between atoms: _258  and  _259
REMARK  102  A    between atoms: _258  and  _261
REMARK  103  A    between atoms: _261  and  _262
REMARK  104  A    between atoms: _267  and  _268
REMARK  105  A    between atoms: _270  and  _272
REMARK  106  A    between atoms: _272  and  _273
REMARK  107  A    between atoms: _276  and  _278
REMARK  108  A    between atoms: _278  and  _279
REMARK  109  A    between atoms: _278  and  _281
REMARK  110  A    between atoms: _281  and  _282
REMARK  111  A    between atoms: _286  and  _287
REMARK  112  A    between atoms: _292  and  _294
REMARK  113  A    between atoms: _294  and  _295
REMARK  114  A    between atoms: _294  and  _297
REMARK  115  A    between atoms: _297  and  _298
REMARK  116  A    between atoms: _301  and  _303
REMARK  117  A    between atoms: _303  and  _304
REMARK  118  A    between atoms: _303  and  _306
REMARK  119  A    between atoms: _306  and  _307
REMARK  120  A    between atoms: _307  and  _308
REMARK  121  A    between atoms: _313  and  _315
REMARK  122  A    between atoms: _315  and  _316
REMARK  123  A    between atoms: _315  and  _318
REMARK  124  A    between atoms: _318  and  _319
REMARK  125  A    between atoms: _322  and  _324
REMARK  126  A    between atoms: _324  and  _325
REMARK  127  A    between atoms: _324  and  _327
REMARK  128  A    between atoms: _327  and  _328
REMARK  129  A    between atoms: _331  and  _333
REMARK  130  A    between atoms: _333  and  _334
REMARK  131  A    between atoms: _333  and  _336
REMARK  132  A    between atoms: _336  and  _337
REMARK  133  A    between atoms: _343  and  _345
REMARK  134  A    between atoms: _345  and  _346
REMARK  135  A    between atoms: _348  and  _350
REMARK  136  A    between atoms: _350  and  _351
REMARK  137  A    between atoms: _350  and  _353
REMARK  138  A    between atoms: _353  and  _354
REMARK  139  A    between atoms: _357  and  _359
REMARK  140  A    between atoms: _359  and  _360
REMARK  141  A    between atoms: _363  and  _365
REMARK  142  A    between atoms: _365  and  _366
REMARK  143  A    between atoms: _365  and  _368
REMARK  144  A    between atoms: _368  and  _369
REMARK  145  A    between atoms: _379  and  _381
REMARK  146  A    between atoms: _381  and  _382
REMARK  147  A    between atoms: _381  and  _384
REMARK  148  A    between atoms: _384  and  _385
REMARK  149  A    between atoms: _387  and  _389
REMARK  150  A    between atoms: _389  and  _390
REMARK  151  A    between atoms: _389  and  _392
REMARK  152  A    between atoms: _392  and  _393
REMARK  153  A    between atoms: _398  and  _399
REMARK  154  A    between atoms: _401  and  _403
REMARK  155  A    between atoms: _403  and  _404
REMARK  156  A    between atoms: _403  and  _406
REMARK  157  A    between atoms: _406  and  _407
REMARK  158  A    between atoms: _412  and  _413
REMARK  159  A    between atoms: _415  and  _417
REMARK  160  A    between atoms: _417  and  _418
REMARK  161  A    between atoms: _417  and  _420
REMARK  162  A    between atoms: _420  and  _421
REMARK  163  A    between atoms: _424  and  _426
REMARK  164  A    between atoms: _426  and  _427
REMARK  165  A    between atoms: _429  and  _431
REMARK  166  A    between atoms: _431  and  _432
REMARK  167  A    between atoms: _431  and  _434
REMARK  168  A    between atoms: _434  and  _435
REMARK  169  A    between atoms: _440  and  _441
REMARK  170  A    between atoms: _443  and  _445
REMARK  171  A    between atoms: _445  and  _446
REMARK  172  A    between atoms: _445  and  _448
REMARK  173  A    between atoms: _448  and  _449
REMARK  174  A    between atoms: _452  and  _454
REMARK  175  A    between atoms: _454  and  _455
REMARK  176  A    between atoms: _454  and  _457
REMARK  177  A    between atoms: _457  and  _458
REMARK  178  A    between atoms: _458  and  _459
REMARK  179  A    between atoms: _459  and  _460
REMARK  180  A    between atoms: _469  and  _471
REMARK  181  A    between atoms: _471  and  _472
REMARK  182  A    between atoms: _471  and  _474
REMARK  183  A    between atoms: _474  and  _475
REMARK  184  A    between atoms: _478  and  _480
REMARK  185  A    between atoms: _480  and  _481
REMARK  186  A    between atoms: _480  and  _483
REMARK  187  A    between atoms: _483  and  _484
REMARK  188  A    between atoms: _487  and  _489
REMARK  189  A    between atoms: _489  and  _490
REMARK  190  A    between atoms: _489  and  _492
REMARK  191  A    between atoms: _492  and  _493
REMARK  192  A    between atoms: _493  and  _494
REMARK  193  A    between atoms: _494  and  _495
REMARK  194  A    between atoms: _504  and  _506
REMARK  195  A    between atoms: _506  and  _507
REMARK  196  A    between atoms: _506  and  _509
REMARK  197  A    between atoms: _509  and  _510
REMARK  198  A    between atoms: _513  and  _515
REMARK  199  A    between atoms: _515  and  _516
REMARK  200  A    between atoms: _515  and  _518
REMARK  201  A    between atoms: _518  and  _519
REMARK  202  A    between atoms: _519  and  _520
REMARK  203  A    between atoms: _520  and  _521
REMARK  204  A    between atoms: _521  and  _522
REMARK  205  A    between atoms: _526  and  _528
REMARK  206  A    between atoms: _528  and  _529
REMARK  207  A    between atoms: _528  and  _531
REMARK  208  A    between atoms: _531  and  _532
REMARK  209  A    between atoms: _532  and  _533
REMARK  210  A    between atoms: _538  and  _540
REMARK  211  A    between atoms: _540  and  _541
REMARK  212  A    between atoms: _540  and  _543
REMARK  213  A    between atoms: _543  and  _544
REMARK  214  A    between atoms: _549  and  _551
REMARK  215  A    between atoms: _551  and  _552
REMARK  216  A    between atoms: _555  and  _557
REMARK  217  A    between atoms: _557  and  _558
REMARK  218  A    between atoms: _557  and  _560
REMARK  219  A    between atoms: _560  and  _561
REMARK  220  A    between atoms: _564  and  _566
REMARK  221  A    between atoms: _566  and  _567
REMARK  222  A    between atoms: _566  and  _569
REMARK  223  A    between atoms: _569  and  _570
REMARK  224  A    between atoms: _570  and  _571
REMARK  225  A    between atoms: _571  and  _572
REMARK  226  A    between atoms: _581  and  _583
REMARK  227  A    between atoms: _583  and  _584
REMARK  228  A    between atoms: _583  and  _586
REMARK  229  A    between atoms: _589  and  _591
REMARK  230  A    between atoms: _591  and  _592
REMARK  231  A    between atoms: _591  and  _594
REMARK  232  A    between atoms: _594  and  _595
REMARK  233  A    between atoms: _600  and  _601
REMARK  234  A    between atoms: _603  and  _605
REMARK  235  A    between atoms: _605  and  _606
REMARK  236  A    between atoms: _605  and  _608
REMARK  237  A    between atoms: _608  and  _609
REMARK  238  A    between atoms: _611  and  _613
REMARK  239  A    between atoms: _613  and  _614
REMARK  240  A    between atoms: _613  and  _616
REMARK  241  A    between atoms: _616  and  _617
REMARK  242  A    between atoms: _622  and  _624
REMARK  243  A    between atoms: _624  and  _625
REMARK  244  A    between atoms: _624  and  _627
REMARK  245  A    between atoms: _627  and  _628
REMARK  246  A    between atoms: _628  and  _629
REMARK  247  A    between atoms: _632  and  _634
REMARK  248  A    between atoms: _634  and  _635
REMARK  249  A    between atoms: _634  and  _637
REMARK  250  A    between atoms: _637  and  _638
REMARK  251  A    between atoms: _643  and  _644
REMARK  252  A    between atoms: _646  and  _648
REMARK  253  A    between atoms: _648  and  _649
REMARK  254  A    between atoms: _652  and  _654
REMARK  255  A    between atoms: _654  and  _655
REMARK  256  A    between atoms: _654  and  _657
REMARK  257  A    between atoms: _657  and  _658
REMARK  258  A    between atoms: _662  and  _663
REMARK  259  A    between atoms: _668  and  _670
REMARK  260  A    between atoms: _670  and  _671
REMARK  261  A    between atoms: _670  and  _673
REMARK  262  A    between atoms: _673  and  _674
REMARK  263  A    between atoms: _677  and  _679
REMARK  264  A    between atoms: _679  and  _680
REMARK  265  A    between atoms: _679  and  _682
REMARK  266  A    between atoms: _682  and  _683
REMARK  267  A    between atoms: _683  and  _684
REMARK  268  A    between atoms: _689  and  _691
REMARK  269  A    between atoms: _691  and  _692
REMARK  270  A    between atoms: _691  and  _694
REMARK  271  A    between atoms: _694  and  _695
REMARK  272  A    between atoms: _698  and  _700
REMARK  273  A    between atoms: _700  and  _701
REMARK  274  A    between atoms: _700  and  _703
REMARK  275  A    between atoms: _703  and  _704
REMARK  276  A    between atoms: _707  and  _709
REMARK  277  A    between atoms: _709  and  _710
REMARK  278  A    between atoms: _709  and  _712
REMARK  279  A    between atoms: _712  and  _713
REMARK                            x       y       z     vdW  Elec       q    Type
REMARK                         _______ _______ _______ _____ _____    ______ ____
ROOT
ATOM      1  O   HOH     1     -55.998  -1.230  65.837  0.00  0.00    +0.000 OA
ENDROOT
TORSDOF 0
REMARK  Name = ../refined-set-2016/4loh/4loh_pocket.pdb
REMARK  279 active torsions:
REMARK  status: ('A' for Active; 'I' for Inactive)
REMARK    1  A    between atoms: _1  and  _3
REMARK    2  A    between atoms: _3  and  _4
REMARK    3  A    between atoms: _6  and  _8
REMARK    4  A    between atoms: _8  and  _9
REMARK    5  A    between atoms: _8  and  _11
REMARK    6  A    between atoms: _11  and  _12
REMARK    7  A    between atoms: _15  and  _17
REMARK    8  A    between atoms: _17  and  _18
REMARK    9  A    between atoms: _21  and  _23
REMARK   10  A    between atoms: _23  and  _24
REMARK   11  A    between atoms: _23  and  _26
REMARK   12  A    between atoms: _26  and  _27
REMARK   13  A    between atoms: _37  and  _39
REMARK   14  A    between atoms: _39  and  _40
REMARK   15  A    between atoms: _39  and  _42
REMARK   16  A    between atoms: _42  and  _43
REMARK   17  A    between atoms: _45  and  _47
REMARK   18  A    between atoms: _47  and  _48
REMARK   19  A    between atoms: _47  and  _50
REMARK   20  A    between atoms: _50  and  _51
REMARK   21  A    between atoms: _56  and  _57
REMARK   22  A    between atoms: _59  and  _61
REMARK   23  A    between atoms: _61  and  _62
REMARK   24  A    between atoms: _61  and  _64
REMARK   25  A    between atoms: _64  and  _65
REMARK   26  A    between atoms: _70  and  _71
REMARK   27  A    between atoms: _73  and  _75
REMARK   28  A    between atoms: _75  and  _76
REMARK   29  A    between atoms: _75  and  _78
REMARK   30  A    between atoms: _78  and  _79
REMARK   31  A    between atoms: _82  and  _84
REMARK   32  A    between atoms: _84  and  _85
REMARK   33  A    between atoms: _87  and  _89
REMARK   34  A    between atoms: _89  and  _90
REMARK   35  A    between atoms: _89  and  _92
REMARK   36  A    between atoms: _92  and  _93
REMARK   37  A    between atoms: _98  and  _99
REMARK   38  A    between atoms: _101  and  _103
REMARK   39  A    between atoms: _103  and  _104
REMARK   40  A    between atoms: _103  and  _106
REMARK   41  A    between atoms: _106  and  _107
REMARK   42  A    between atoms: _110  and  _112
REMARK   43  A    between atoms: _112  and  _113
REMARK   44  A    between atoms: _112  and  _115
REMARK   45  A    between atoms: _115  and  _116
REMARK   46  A    between atoms: _116  and  _117
REMARK   47  A    between atoms: _117  and  _118
REMARK   48  A    between atoms: _127  and  _129
REMARK   49  A    between atoms: _129  and  _130
REMARK   50  A    between atoms: _129  and  _132
REMARK   51  A    between atoms: _132  and  _133
REMARK   52  A    between atoms: _136  and  _138
REMARK   53  A    between atoms: _138  and  _139
REMARK   54  A    between atoms: _138  and  _141
REMARK   55  A    between atoms: _141  and  _142
REMARK   56  A    between atoms: _145  and  _147
REMARK   57  A    between atoms: _147  and  _148
REMARK   58  A    between atoms: _147  and  _150
REMARK   59  A    between atoms: _150  and  _151
REMARK   60  A    between atoms: _151  and  _152
REMARK   61  A    between atoms: _157  and  _159
REMARK   62  A    between atoms: _159  and  _160
REMARK   63  A    between atoms: _159  and  _162
REMARK   64  A    between atoms: _162  and  _163
REMARK   65  A    between atoms: _168  and  _170
REMARK   66  A    between atoms: _170  and  _171
REMARK   67  A    between atoms: _174  and  _176
REMARK   68  A    between atoms: _176  and  _177
REMARK   69  A    between atoms: _179  and  _181
REMARK   70  A    between atoms: _181  and  _182
REMARK   71  A    between atoms: _181  and  _184
REMARK   72  A    between atoms: _184  and  _185
REMARK   73  A    between atoms: _188  and  _190
REMARK   74  A    between atoms: _190  and  _191
REMARK   75  A    between atoms: _190  and  _193
REMARK   76  A    between atoms: _193  and  _194
REMARK   77  A    between atoms: _194  and  _195
REMARK   78  A    between atoms: _195  and  _196
REMARK   79  A    between atoms: _205  and  _207
REMARK   80  A    between atoms: _207  and  _208
REMARK   81  A    between atoms: _207  and  _210
REMARK   82  A    between atoms: _213  and  _215
REMARK   83  A    between atoms: _215  and  _216
REMARK   84  A    between atoms: _215  and  _218
REMARK   85  A    between atoms: _218  and  _219
REMARK   86  A    between atoms: _224  and  _225
REMARK   87  A    between atoms: _227  and  _229
REMARK   88  A    between atoms: _229  and  _230
REMARK   89  A    between atoms: _229  and  _232
REMARK   90  A    between atoms: _232  and  _233
REMARK   91  A    between atoms: _235  and  _237
REMARK   92  A    between atoms: _237  and  _238
REMARK   93  A    between atoms: _237  and  _240
REMARK   94  A    between atoms: _240  and  _241
REMARK   95  A    between atoms: _246  and  _248
REMARK   96  A    between atoms: _248  and  _249
REMARK   97  A    between atoms: _248  and  _251
REMARK   98  A    between atoms: _251  and  _252
REMARK   99  A    between atoms: _252  and  _253
REMARK  100  A    between atoms: _256  and  _258
REMARK  101  A    between atoms: _258  and  _259
REMARK  102  A    between atoms: _258  and  _261
REMARK  103  A    between atoms: _261  and  _262
REMARK  104  A    between atoms: _267  and  _268
REMARK  105  A    between atoms: _270  and  _272
REMARK  106  A    between atoms: _272  and  _273
REMARK  107  A    between atoms: _276  and  _278
REMARK  108  A    between atoms: _278  and  _279
REMARK  109  A    between atoms: _278  and  _281
REMARK  110  A    between atoms: _281  and  _282
REMARK  111  A    between atoms: _286  and  _287
REMARK  112  A    between atoms: _292  and  _294
REMARK  113  A    between atoms: _294  and  _295
REMARK  114  A    between atoms: _294  and  _297
REMARK  115  A    between atoms: _297  and  _298
REMARK  116  A    between atoms: _301  and  _303
REMARK  117  A    between atoms: _303  and  _304
REMARK  118  A    between atoms: _303  and  _306
REMARK  119  A    between atoms: _306  and  _307
REMARK  120  A    between atoms: _307  and  _308
REMARK  121  A    between atoms: _313  and  _315
REMARK  122  A    between atoms: _315  and  _316
REMARK  123  A    between atoms: _315  and  _318
REMARK  124  A    between atoms: _318  and  _319
REMARK  125  A    between atoms: _322  and  _324
REMARK  126  A    between atoms: _324  and  _325
REMARK  127  A    between atoms: _324  and  _327
REMARK  128  A    between atoms: _327  and  _328
REMARK  129  A    between atoms: _331  and  _333
REMARK  130  A    between atoms: _333  and  _334
REMARK  131  A    between atoms: _333  and  _336
REMARK  132  A    between atoms: _336  and  _337
REMARK  133  A    between atoms: _343  and  _345
REMARK  134  A    between atoms: _345  and  _346
REMARK  135  A    between atoms: _348  and  _350
REMARK  136  A    between atoms: _350  and  _351
REMARK  137  A    between atoms: _350  and  _353
REMARK  138  A    between atoms: _353  and  _354
REMARK  139  A    between atoms: _357  and  _359
REMARK  140  A    between atoms: _359  and  _360
REMARK  141  A    between atoms: _363  and  _365
REMARK  142  A    between atoms: _365  and  _366
REMARK  143  A    between atoms: _365  and  _368
REMARK  144  A    between atoms: _368  and  _369
REMARK  145  A    between atoms: _379  and  _381
REMARK  146  A    between atoms: _381  and  _382
REMARK  147  A    between atoms: _381  and  _384
REMARK  148  A    between atoms: _384  and  _385
REMARK  149  A    between atoms: _387  and  _389
REMARK  150  A    between atoms: _389  and  _390
REMARK  151  A    between atoms: _389  and  _392
REMARK  152  A    between atoms: _392  and  _393
REMARK  153  A    between atoms: _398  and  _399
REMARK  154  A    between atoms: _401  and  _403
REMARK  155  A    between atoms: _403  and  _404
REMARK  156  A    between atoms: _403  and  _406
REMARK  157  A    between atoms: _406  and  _407
REMARK  158  A    between atoms: _412  and  _413
REMARK  159  A    between atoms: _415  and  _417
REMARK  160  A    between atoms: _417  and  _418
REMARK  161  A    between atoms: _417  and  _420
REMARK  162  A    between atoms: _420  and  _421
REMARK  163  A    between atoms: _424  and  _426
REMARK  164  A    between atoms: _426  and  _427
REMARK  165  A    between atoms: _429  and  _431
REMARK  166  A    between atoms: _431  and  _432
REMARK  167  A    between atoms: _431  and  _434
REMARK  168  A    between atoms: _434  and  _435
REMARK  169  A    between atoms: _440  and  _441
REMARK  170  A    between atoms: _443  and  _445
REMARK  171  A    between atoms: _445  and  _446
REMARK  172  A    between atoms: _445  and  _448
REMARK  173  A    between atoms: _448  and  _449
REMARK  174  A    between atoms: _452  and  _454
REMARK  175  A    between atoms: _454  and  _455
REMARK  176  A    between atoms: _454  and  _457
REMARK  177  A    between atoms: _457  and  _458
REMARK  178  A    between atoms: _458  and  _459
REMARK  179  A    between atoms: _459  and  _460
REMARK  180  A    between atoms: _469  and  _471
REMARK  181  A    between atoms: _471  and  _472
REMARK  182  A    between atoms: _471  and  _474
REMARK  183  A    between atoms: _474  and  _475
REMARK  184  A    between atoms: _478  and  _480
REMARK  185  A    between atoms: _480  and  _481
REMARK  186  A    between atoms: _480  and  _483
REMARK  187  A    between atoms: _483  and  _484
REMARK  188  A    between atoms: _487  and  _489
REMARK  189  A    between atoms: _489  and  _490
REMARK  190  A    between atoms: _489  and  _492
REMARK  191  A    between atoms: _492  and  _493
REMARK  192  A    between atoms: _493  and  _494
REMARK  193  A    between atoms: _494  and  _495
REMARK  194  A    between atoms: _504  and  _506
REMARK  195  A    between atoms: _506  and  _507
REMARK  196  A    between atoms: _506  and  _509
REMARK  197  A    between atoms: _509  and  _510
REMARK  198  A    between atoms: _513  and  _515
REMARK  199  A    between atoms: _515  and  _516
REMARK  200  A    between atoms: _515  and  _518
REMARK  201  A    between atoms: _518  and  _519
REMARK  202  A    between atoms: _519  and  _520
REMARK  203  A    between atoms: _520  and  _521
REMARK  204  A    between atoms: _521  and  _522
REMARK  205  A    between atoms: _526  and  _528
REMARK  206  A    between atoms: _528  and  _529
REMARK  207  A    between atoms: _528  and  _531
REMARK  208  A    between atoms: _531  and  _532
REMARK  209  A    between atoms: _532  and  _533
REMARK  210  A    between atoms: _538  and  _540
REMARK  211  A    between atoms: _540  and  _541
REMARK  212  A    between atoms: _540  and  _543
REMARK  213  A    between atoms: _543  and  _544
REMARK  214  A    between atoms: _549  and  _551
REMARK  215  A    between atoms: _551  and  _552
REMARK  216  A    between atoms: _555  and  _557
REMARK  217  A    between atoms: _557  and  _558
REMARK  218  A    between atoms: _557  and  _560
REMARK  219  A    between atoms: _560  and  _561
REMARK  220  A    between atoms: _564  and  _566
REMARK  221  A    between atoms: _566  and  _567
REMARK  222  A    between atoms: _566  and  _569
REMARK  223  A    between atoms: _569  and  _570
REMARK  224  A    between atoms: _570  and  _571
REMARK  225  A    between atoms: _571  and  _572
REMARK  226  A    between atoms: _581  and  _583
REMARK  227  A    between atoms: _583  and  _584
REMARK  228  A    between atoms: _583  and  _586
REMARK  229  A    between atoms: _589  and  _591
REMARK  230  A    between atoms: _591  and  _592
REMARK  231  A    between atoms: _591  and  _594
REMARK  232  A    between atoms: _594  and  _595
REMARK  233  A    between atoms: _600  and  _601
REMARK  234  A    between atoms: _603  and  _605
REMARK  235  A    between atoms: _605  and  _606
REMARK  236  A    between atoms: _605  and  _608
REMARK  237  A    between atoms: _608  and  _609
REMARK  238  A    between atoms: _611  and  _613
REMARK  239  A    between atoms: _613  and  _614
REMARK  240  A    between atoms: _613  and  _616
REMARK  241  A    between atoms: _616  and  _617
REMARK  242  A    between atoms: _622  and  _624
REMARK  243  A    between atoms: _624  and  _625
REMARK  244  A    between atoms: _624  and  _627
REMARK  245  A    between atoms: _627  and  _628
REMARK  246  A    between atoms: _628  and  _629
REMARK  247  A    between atoms: _632  and  _634
REMARK  248  A    between atoms: _634  and  _635
REMARK  249  A    between atoms: _634  and  _637
REMARK  250  A    between atoms: _637  and  _638
REMARK  251  A    between atoms: _643  and  _644
REMARK  252  A    between atoms: _646  and  _648
REMARK  253  A    between atoms: _648  and  _649
REMARK  254  A    between atoms: _652  and  _654
REMARK  255  A    between atoms: _654  and  _655
REMARK  256  A    between atoms: _654  and  _657
REMARK  257  A    between atoms: _657  and  _658
REMARK  258  A    between atoms: _662  and  _663
REMARK  259  A    between atoms: _668  and  _670
REMARK  260  A    between atoms: _670  and  _671
REMARK  261  A    between atoms: _670  and  _673
REMARK  262  A    between atoms: _673  and  _674
REMARK  263  A    between atoms: _677  and  _679
REMARK  264  A    between atoms: _679  and  _680
REMARK  265  A    between atoms: _679  and  _682
REMARK  266  A    between atoms: _682  and  _683
REMARK  267  A    between atoms: _683  and  _684
REMARK  268  A    between atoms: _689  and  _691
REMARK  269  A    between atoms: _691  and  _692
REMARK  270  A    between atoms: _691  and  _694
REMARK  271  A    between atoms: _694  and  _695
REMARK  272  A    between atoms: _698  and  _700
REMARK  273  A    between atoms: _700  and  _701
REMARK  274  A    between atoms: _700  and  _703
REMARK  275  A    between atoms: _703  and  _704
REMARK  276  A    between atoms: _707  and  _709
REMARK  277  A    between atoms: _709  and  _710
REMARK  278  A    between atoms: _709  and  _712
REMARK  279  A    between atoms: _712  and  _713
REMARK                            x       y       z     vdW  Elec       q    Type
REMARK                         _______ _______ _______ _____ _____    ______ ____
ROOT
ATOM      1  O   HOH     1     -56.985   9.069  67.890  0.00  0.00    +0.000 OA
ENDROOT
TORSDOF 0
REMARK  Name = ../refined-set-2016/4loh/4loh_pocket.pdb
REMARK  279 active torsions:
REMARK  status: ('A' for Active; 'I' for Inactive)
REMARK    1  A    between atoms: _1  and  _3
REMARK    2  A    between atoms: _3  and  _4
REMARK    3  A    between atoms: _6  and  _8
REMARK    4  A    between atoms: _8  and  _9
REMARK    5  A    between atoms: _8  and  _11
REMARK    6  A    between atoms: _11  and  _12
REMARK    7  A    between atoms: _15  and  _17
REMARK    8  A    between atoms: _17  and  _18
REMARK    9  A    between atoms: _21  and  _23
REMARK   10  A    between atoms: _23  and  _24
REMARK   11  A    between atoms: _23  and  _26
REMARK   12  A    between atoms: _26  and  _27
REMARK   13  A    between atoms: _37  and  _39
REMARK   14  A    between atoms: _39  and  _40
REMARK   15  A    between atoms: _39  and  _42
REMARK   16  A    between atoms: _42  and  _43
REMARK   17  A    between atoms: _45  and  _47
REMARK   18  A    between atoms: _47  and  _48
REMARK   19  A    between atoms: _47  and  _50
REMARK   20  A    between atoms: _50  and  _51
REMARK   21  A    between atoms: _56  and  _57
REMARK   22  A    between atoms: _59  and  _61
REMARK   23  A    between atoms: _61  and  _62
REMARK   24  A    between atoms: _61  and  _64
REMARK   25  A    between atoms: _64  and  _65
REMARK   26  A    between atoms: _70  and  _71
REMARK   27  A    between atoms: _73  and  _75
REMARK   28  A    between atoms: _75  and  _76
REMARK   29  A    between atoms: _75  and  _78
REMARK   30  A    between atoms: _78  and  _79
REMARK   31  A    between atoms: _82  and  _84
REMARK   32  A    between atoms: _84  and  _85
REMARK   33  A    between atoms: _87  and  _89
REMARK   34  A    between atoms: _89  and  _90
REMARK   35  A    between atoms: _89  and  _92
REMARK   36  A    between atoms: _92  and  _93
REMARK   37  A    between atoms: _98  and  _99
REMARK   38  A    between atoms: _101  and  _103
REMARK   39  A    between atoms: _103  and  _104
REMARK   40  A    between atoms: _103  and  _106
REMARK   41  A    between atoms: _106  and  _107
REMARK   42  A    between atoms: _110  and  _112
REMARK   43  A    between atoms: _112  and  _113
REMARK   44  A    between atoms: _112  and  _115
REMARK   45  A    between atoms: _115  and  _116
REMARK   46  A    between atoms: _116  and  _117
REMARK   47  A    between atoms: _117  and  _118
REMARK   48  A    between atoms: _127  and  _129
REMARK   49  A    between atoms: _129  and  _130
REMARK   50  A    between atoms: _129  and  _132
REMARK   51  A    between atoms: _132  and  _133
REMARK   52  A    between atoms: _136  and  _138
REMARK   53  A    between atoms: _138  and  _139
REMARK   54  A    between atoms: _138  and  _141
REMARK   55  A    between atoms: _141  and  _142
REMARK   56  A    between atoms: _145  and  _147
REMARK   57  A    between atoms: _147  and  _148
REMARK   58  A    between atoms: _147  and  _150
REMARK   59  A    between atoms: _150  and  _151
REMARK   60  A    between atoms: _151  and  _152
REMARK   61  A    between atoms: _157  and  _159
REMARK   62  A    between atoms: _159  and  _160
REMARK   63  A    between atoms: _159  and  _162
REMARK   64  A    between atoms: _162  and  _163
REMARK   65  A    between atoms: _168  and  _170
REMARK   66  A    between atoms: _170  and  _171
REMARK   67  A    between atoms: _174  and  _176
REMARK   68  A    between atoms: _176  and  _177
REMARK   69  A    between atoms: _179  and  _181
REMARK   70  A    between atoms: _181  and  _182
REMARK   71  A    between atoms: _181  and  _184
REMARK   72  A    between atoms: _184  and  _185
REMARK   73  A    between atoms: _188  and  _190
REMARK   74  A    between atoms: _190  and  _191
REMARK   75  A    between atoms: _190  and  _193
REMARK   76  A    between atoms: _193  and  _194
REMARK   77  A    between atoms: _194  and  _195
REMARK   78  A    between atoms: _195  and  _196
REMARK   79  A    between atoms: _205  and  _207
REMARK   80  A    between atoms: _207  and  _208
REMARK   81  A    between atoms: _207  and  _210
REMARK   82  A    between atoms: _213  and  _215
REMARK   83  A    between atoms: _215  and  _216
REMARK   84  A    between atoms: _215  and  _218
REMARK   85  A    between atoms: _218  and  _219
REMARK   86  A    between atoms: _224  and  _225
REMARK   87  A    between atoms: _227  and  _229
REMARK   88  A    between atoms: _229  and  _230
REMARK   89  A    between atoms: _229  and  _232
REMARK   90  A    between atoms: _232  and  _233
REMARK   91  A    between atoms: _235  and  _237
REMARK   92  A    between atoms: _237  and  _238
REMARK   93  A    between atoms: _237  and  _240
REMARK   94  A    between atoms: _240  and  _241
REMARK   95  A    between atoms: _246  and  _248
REMARK   96  A    between atoms: _248  and  _249
REMARK   97  A    between atoms: _248  and  _251
REMARK   98  A    between atoms: _251  and  _252
REMARK   99  A    between atoms: _252  and  _253
REMARK  100  A    between atoms: _256  and  _258
REMARK  101  A    between atoms: _258  and  _259
REMARK  102  A    between atoms: _258  and  _261
REMARK  103  A    between atoms: _261  and  _262
REMARK  104  A    between atoms: _267  and  _268
REMARK  105  A    between atoms: _270  and  _272
REMARK  106  A    between atoms: _272  and  _273
REMARK  107  A    between atoms: _276  and  _278
REMARK  108  A    between atoms: _278  and  _279
REMARK  109  A    between atoms: _278  and  _281
REMARK  110  A    between atoms: _281  and  _282
REMARK  111  A    between atoms: _286  and  _287
REMARK  112  A    between atoms: _292  and  _294
REMARK  113  A    between atoms: _294  and  _295
REMARK  114  A    between atoms: _294  and  _297
REMARK  115  A    between atoms: _297  and  _298
REMARK  116  A    between atoms: _301  and  _303
REMARK  117  A    between atoms: _303  and  _304
REMARK  118  A    between atoms: _303  and  _306
REMARK  119  A    between atoms: _306  and  _307
REMARK  120  A    between atoms: _307  and  _308
REMARK  121  A    between atoms: _313  and  _315
REMARK  122  A    between atoms: _315  and  _316
REMARK  123  A    between atoms: _315  and  _318
REMARK  124  A    between atoms: _318  and  _319
REMARK  125  A    between atoms: _322  and  _324
REMARK  126  A    between atoms: _324  and  _325
REMARK  127  A    between atoms: _324  and  _327
REMARK  128  A    between atoms: _327  and  _328
REMARK  129  A    between atoms: _331  and  _333
REMARK  130  A    between atoms: _333  and  _334
REMARK  131  A    between atoms: _333  and  _336
REMARK  132  A    between atoms: _336  and  _337
REMARK  133  A    between atoms: _343  and  _345
REMARK  134  A    between atoms: _345  and  _346
REMARK  135  A    between atoms: _348  and  _350
REMARK  136  A    between atoms: _350  and  _351
REMARK  137  A    between atoms: _350  and  _353
REMARK  138  A    between atoms: _353  and  _354
REMARK  139  A    between atoms: _357  and  _359
REMARK  140  A    between atoms: _359  and  _360
REMARK  141  A    between atoms: _363  and  _365
REMARK  142  A    between atoms: _365  and  _366
REMARK  143  A    between atoms: _365  and  _368
REMARK  144  A    between atoms: _368  and  _369
REMARK  145  A    between atoms: _379  and  _381
REMARK  146  A    between atoms: _381  and  _382
REMARK  147  A    between atoms: _381  and  _384
REMARK  148  A    between atoms: _384  and  _385
REMARK  149  A    between atoms: _387  and  _389
REMARK  150  A    between atoms: _389  and  _390
REMARK  151  A    between atoms: _389  and  _392
REMARK  152  A    between atoms: _392  and  _393
REMARK  153  A    between atoms: _398  and  _399
REMARK  154  A    between atoms: _401  and  _403
REMARK  155  A    between atoms: _403  and  _404
REMARK  156  A    between atoms: _403  and  _406
REMARK  157  A    between atoms: _406  and  _407
REMARK  158  A    between atoms: _412  and  _413
REMARK  159  A    between atoms: _415  and  _417
REMARK  160  A    between atoms: _417  and  _418
REMARK  161  A    between atoms: _417  and  _420
REMARK  162  A    between atoms: _420  and  _421
REMARK  163  A    between atoms: _424  and  _426
REMARK  164  A    between atoms: _426  and  _427
REMARK  165  A    between atoms: _429  and  _431
REMARK  166  A    between atoms: _431  and  _432
REMARK  167  A    between atoms: _431  and  _434
REMARK  168  A    between atoms: _434  and  _435
REMARK  169  A    between atoms: _440  and  _441
REMARK  170  A    between atoms: _443  and  _445
REMARK  171  A    between atoms: _445  and  _446
REMARK  172  A    between atoms: _445  and  _448
REMARK  173  A    between atoms: _448  and  _449
REMARK  174  A    between atoms: _452  and  _454
REMARK  175  A    between atoms: _454  and  _455
REMARK  176  A    between atoms: _454  and  _457
REMARK  177  A    between atoms: _457  and  _458
REMARK  178  A    between atoms: _458  and  _459
REMARK  179  A    between atoms: _459  and  _460
REMARK  180  A    between atoms: _469  and  _471
REMARK  181  A    between atoms: _471  and  _472
REMARK  182  A    between atoms: _471  and  _474
REMARK  183  A    between atoms: _474  and  _475
REMARK  184  A    between atoms: _478  and  _480
REMARK  185  A    between atoms: _480  and  _481
REMARK  186  A    between atoms: _480  and  _483
REMARK  187  A    between atoms: _483  and  _484
REMARK  188  A    between atoms: _487  and  _489
REMARK  189  A    between atoms: _489  and  _490
REMARK  190  A    between atoms: _489  and  _492
REMARK  191  A    between atoms: _492  and  _493
REMARK  192  A    between atoms: _493  and  _494
REMARK  193  A    between atoms: _494  and  _495
REMARK  194  A    between atoms: _504  and  _506
REMARK  195  A    between atoms: _506  and  _507
REMARK  196  A    between atoms: _506  and  _509
REMARK  197  A    between atoms: _509  and  _510
REMARK  198  A    between atoms: _513  and  _515
REMARK  199  A    between atoms: _515  and  _516
REMARK  200  A    between atoms: _515  and  _518
REMARK  201  A    between atoms: _518  and  _519
REMARK  202  A    between atoms: _519  and  _520
REMARK  203  A    between atoms: _520  and  _521
REMARK  204  A    between atoms: _521  and  _522
REMARK  205  A    between atoms: _526  and  _528
REMARK  206  A    between atoms: _528  and  _529
REMARK  207  A    between atoms: _528  and  _531
REMARK  208  A    between atoms: _531  and  _532
REMARK  209  A    between atoms: _532  and  _533
REMARK  210  A    between atoms: _538  and  _540
REMARK  211  A    between atoms: _540  and  _541
REMARK  212  A    between atoms: _540  and  _543
REMARK  213  A    between atoms: _543  and  _544
REMARK  214  A    between atoms: _549  and  _551
REMARK  215  A    between atoms: _551  and  _552
REMARK  216  A    between atoms: _555  and  _557
REMARK  217  A    between atoms: _557  and  _558
REMARK  218  A    between atoms: _557  and  _560
REMARK  219  A    between atoms: _560  and  _561
REMARK  220  A    between atoms: _564  and  _566
REMARK  221  A    between atoms: _566  and  _567
REMARK  222  A    between atoms: _566  and  _569
REMARK  223  A    between atoms: _569  and  _570
REMARK  224  A    between atoms: _570  and  _571
REMARK  225  A    between atoms: _571  and  _572
REMARK  226  A    between atoms: _581  and  _583
REMARK  227  A    between atoms: _583  and  _584
REMARK  228  A    between atoms: _583  and  _586
REMARK  229  A    between atoms: _589  and  _591
REMARK  230  A    between atoms: _591  and  _592
REMARK  231  A    between atoms: _591  and  _594
REMARK  232  A    between atoms: _594  and  _595
REMARK  233  A    between atoms: _600  and  _601
REMARK  234  A    between atoms: _603  and  _605
REMARK  235  A    between atoms: _605  and  _606
REMARK  236  A    between atoms: _605  and  _608
REMARK  237  A    between atoms: _608  and  _609
REMARK  238  A    between atoms: _611  and  _613
REMARK  239  A    between atoms: _613  and  _614
REMARK  240  A    between atoms: _613  and  _616
REMARK  241  A    between atoms: _616  and  _617
REMARK  242  A    between atoms: _622  and  _624
REMARK  243  A    between atoms: _624  and  _625
REMARK  244  A    between atoms: _624  and  _627
REMARK  245  A    between atoms: _627  and  _628
REMARK  246  A    between atoms: _628  and  _629
REMARK  247  A    between atoms: _632  and  _634
REMARK  248  A    between atoms: _634  and  _635
REMARK  249  A    between atoms: _634  and  _637
REMARK  250  A    between atoms: _637  and  _638
REMARK  251  A    between atoms: _643  and  _644
REMARK  252  A    between atoms: _646  and  _648
REMARK  253  A    between atoms: _648  and  _649
REMARK  254  A    between atoms: _652  and  _654
REMARK  255  A    between atoms: _654  and  _655
REMARK  256  A    between atoms: _654  and  _657
REMARK  257  A    between atoms: _657  and  _658
REMARK  258  A    between atoms: _662  and  _663
REMARK  259  A    between atoms: _668  and  _670
REMARK  260  A    between atoms: _670  and  _671
REMARK  261  A    between atoms: _670  and  _673
REMARK  262  A    between atoms: _673  and  _674
REMARK  263  A    between atoms: _677  and  _679
REMARK  264  A    between atoms: _679  and  _680
REMARK  265  A    between atoms: _679  and  _682
REMARK  266  A    between atoms: _682  and  _683
REMARK  267  A    between atoms: _683  and  _684
REMARK  268  A    between atoms: _689  and  _691
REMARK  269  A    between atoms: _691  and  _692
REMARK  270  A    between atoms: _691  and  _694
REMARK  271  A    between atoms: _694  and  _695
REMARK  272  A    between atoms: _698  and  _700
REMARK  273  A    between atoms: _700  and  _701
REMARK  274  A    between atoms: _700  and  _703
REMARK  275  A    between atoms: _703  and  _704
REMARK  276  A    between atoms: _707  and  _709
REMARK  277  A    between atoms: _709  and  _710
REMARK  278  A    between atoms: _709  and  _712
REMARK  279  A    between atoms: _712  and  _713
REMARK                            x       y       z     vdW  Elec       q    Type
REMARK                         _______ _______ _______ _____ _____    ______ ____
ROOT
ATOM      1  O   HOH     1     -66.507   5.983  74.522  0.00  0.00    +0.000 OA
ENDROOT
TORSDOF 0
REMARK  Name = ../refined-set-2016/4loh/4loh_pocket.pdb
REMARK  279 active torsions:
REMARK  status: ('A' for Active; 'I' for Inactive)
REMARK    1  A    between atoms: _1  and  _3
REMARK    2  A    between atoms: _3  and  _4
REMARK    3  A    between atoms: _6  and  _8
REMARK    4  A    between atoms: _8  and  _9
REMARK    5  A    between atoms: _8  and  _11
REMARK    6  A    between atoms: _11  and  _12
REMARK    7  A    between atoms: _15  and  _17
REMARK    8  A    between atoms: _17  and  _18
REMARK    9  A    between atoms: _21  and  _23
REMARK   10  A    between atoms: _23  and  _24
REMARK   11  A    between atoms: _23  and  _26
REMARK   12  A    between atoms: _26  and  _27
REMARK   13  A    between atoms: _37  and  _39
REMARK   14  A    between atoms: _39  and  _40
REMARK   15  A    between atoms: _39  and  _42
REMARK   16  A    between atoms: _42  and  _43
REMARK   17  A    between atoms: _45  and  _47
REMARK   18  A    between atoms: _47  and  _48
REMARK   19  A    between atoms: _47  and  _50
REMARK   20  A    between atoms: _50  and  _51
REMARK   21  A    between atoms: _56  and  _57
REMARK   22  A    between atoms: _59  and  _61
REMARK   23  A    between atoms: _61  and  _62
REMARK   24  A    between atoms: _61  and  _64
REMARK   25  A    between atoms: _64  and  _65
REMARK   26  A    between atoms: _70  and  _71
REMARK   27  A    between atoms: _73  and  _75
REMARK   28  A    between atoms: _75  and  _76
REMARK   29  A    between atoms: _75  and  _78
REMARK   30  A    between atoms: _78  and  _79
REMARK   31  A    between atoms: _82  and  _84
REMARK   32  A    between atoms: _84  and  _85
REMARK   33  A    between atoms: _87  and  _89
REMARK   34  A    between atoms: _89  and  _90
REMARK   35  A    between atoms: _89  and  _92
REMARK   36  A    between atoms: _92  and  _93
REMARK   37  A    between atoms: _98  and  _99
REMARK   38  A    between atoms: _101  and  _103
REMARK   39  A    between atoms: _103  and  _104
REMARK   40  A    between atoms: _103  and  _106
REMARK   41  A    between atoms: _106  and  _107
REMARK   42  A    between atoms: _110  and  _112
REMARK   43  A    between atoms: _112  and  _113
REMARK   44  A    between atoms: _112  and  _115
REMARK   45  A    between atoms: _115  and  _116
REMARK   46  A    between atoms: _116  and  _117
REMARK   47  A    between atoms: _117  and  _118
REMARK   48  A    between atoms: _127  and  _129
REMARK   49  A    between atoms: _129  and  _130
REMARK   50  A    between atoms: _129  and  _132
REMARK   51  A    between atoms: _132  and  _133
REMARK   52  A    between atoms: _136  and  _138
REMARK   53  A    between atoms: _138  and  _139
REMARK   54  A    between atoms: _138  and  _141
REMARK   55  A    between atoms: _141  and  _142
REMARK   56  A    between atoms: _145  and  _147
REMARK   57  A    between atoms: _147  and  _148
REMARK   58  A    between atoms: _147  and  _150
REMARK   59  A    between atoms: _150  and  _151
REMARK   60  A    between atoms: _151  and  _152
REMARK   61  A    between atoms: _157  and  _159
REMARK   62  A    between atoms: _159  and  _160
REMARK   63  A    between atoms: _159  and  _162
REMARK   64  A    between atoms: _162  and  _163
REMARK   65  A    between atoms: _168  and  _170
REMARK   66  A    between atoms: _170  and  _171
REMARK   67  A    between atoms: _174  and  _176
REMARK   68  A    between atoms: _176  and  _177
REMARK   69  A    between atoms: _179  and  _181
REMARK   70  A    between atoms: _181  and  _182
REMARK   71  A    between atoms: _181  and  _184
REMARK   72  A    between atoms: _184  and  _185
REMARK   73  A    between atoms: _188  and  _190
REMARK   74  A    between atoms: _190  and  _191
REMARK   75  A    between atoms: _190  and  _193
REMARK   76  A    between atoms: _193  and  _194
REMARK   77  A    between atoms: _194  and  _195
REMARK   78  A    between atoms: _195  and  _196
REMARK   79  A    between atoms: _205  and  _207
REMARK   80  A    between atoms: _207  and  _208
REMARK   81  A    between atoms: _207  and  _210
REMARK   82  A    between atoms: _213  and  _215
REMARK   83  A    between atoms: _215  and  _216
REMARK   84  A    between atoms: _215  and  _218
REMARK   85  A    between atoms: _218  and  _219
REMARK   86  A    between atoms: _224  and  _225
REMARK   87  A    between atoms: _227  and  _229
REMARK   88  A    between atoms: _229  and  _230
REMARK   89  A    between atoms: _229  and  _232
REMARK   90  A    between atoms: _232  and  _233
REMARK   91  A    between atoms: _235  and  _237
REMARK   92  A    between atoms: _237  and  _238
REMARK   93  A    between atoms: _237  and  _240
REMARK   94  A    between atoms: _240  and  _241
REMARK   95  A    between atoms: _246  and  _248
REMARK   96  A    between atoms: _248  and  _249
REMARK   97  A    between atoms: _248  and  _251
REMARK   98  A    between atoms: _251  and  _252
REMARK   99  A    between atoms: _252  and  _253
REMARK  100  A    between atoms: _256  and  _258
REMARK  101  A    between atoms: _258  and  _259
REMARK  102  A    between atoms: _258  and  _261
REMARK  103  A    between atoms: _261  and  _262
REMARK  104  A    between atoms: _267  and  _268
REMARK  105  A    between atoms: _270  and  _272
REMARK  106  A    between atoms: _272  and  _273
REMARK  107  A    between atoms: _276  and  _278
REMARK  108  A    between atoms: _278  and  _279
REMARK  109  A    between atoms: _278  and  _281
REMARK  110  A    between atoms: _281  and  _282
REMARK  111  A    between atoms: _286  and  _287
REMARK  112  A    between atoms: _292  and  _294
REMARK  113  A    between atoms: _294  and  _295
REMARK  114  A    between atoms: _294  and  _297
REMARK  115  A    between atoms: _297  and  _298
REMARK  116  A    between atoms: _301  and  _303
REMARK  117  A    between atoms: _303  and  _304
REMARK  118  A    between atoms: _303  and  _306
REMARK  119  A    between atoms: _306  and  _307
REMARK  120  A    between atoms: _307  and  _308
REMARK  121  A    between atoms: _313  and  _315
REMARK  122  A    between atoms: _315  and  _316
REMARK  123  A    between atoms: _315  and  _318
REMARK  124  A    between atoms: _318  and  _319
REMARK  125  A    between atoms: _322  and  _324
REMARK  126  A    between atoms: _324  and  _325
REMARK  127  A    between atoms: _324  and  _327
REMARK  128  A    between atoms: _327  and  _328
REMARK  129  A    between atoms: _331  and  _333
REMARK  130  A    between atoms: _333  and  _334
REMARK  131  A    between atoms: _333  and  _336
REMARK  132  A    between atoms: _336  and  _337
REMARK  133  A    between atoms: _343  and  _345
REMARK  134  A    between atoms: _345  and  _346
REMARK  135  A    between atoms: _348  and  _350
REMARK  136  A    between atoms: _350  and  _351
REMARK  137  A    between atoms: _350  and  _353
REMARK  138  A    between atoms: _353  and  _354
REMARK  139  A    between atoms: _357  and  _359
REMARK  140  A    between atoms: _359  and  _360
REMARK  141  A    between atoms: _363  and  _365
REMARK  142  A    between atoms: _365  and  _366
REMARK  143  A    between atoms: _365  and  _368
REMARK  144  A    between atoms: _368  and  _369
REMARK  145  A    between atoms: _379  and  _381
REMARK  146  A    between atoms: _381  and  _382
REMARK  147  A    between atoms: _381  and  _384
REMARK  148  A    between atoms: _384  and  _385
REMARK  149  A    between atoms: _387  and  _389
REMARK  150  A    between atoms: _389  and  _390
REMARK  151  A    between atoms: _389  and  _392
REMARK  152  A    between atoms: _392  and  _393
REMARK  153  A    between atoms: _398  and  _399
REMARK  154  A    between atoms: _401  and  _403
REMARK  155  A    between atoms: _403  and  _404
REMARK  156  A    between atoms: _403  and  _406
REMARK  157  A    between atoms: _406  and  _407
REMARK  158  A    between atoms: _412  and  _413
REMARK  159  A    between atoms: _415  and  _417
REMARK  160  A    between atoms: _417  and  _418
REMARK  161  A    between atoms: _417  and  _420
REMARK  162  A    between atoms: _420  and  _421
REMARK  163  A    between atoms: _424  and  _426
REMARK  164  A    between atoms: _426  and  _427
REMARK  165  A    between atoms: _429  and  _431
REMARK  166  A    between atoms: _431  and  _432
REMARK  167  A    between atoms: _431  and  _434
REMARK  168  A    between atoms: _434  and  _435
REMARK  169  A    between atoms: _440  and  _441
REMARK  170  A    between atoms: _443  and  _445
REMARK  171  A    between atoms: _445  and  _446
REMARK  172  A    between atoms: _445  and  _448
REMARK  173  A    between atoms: _448  and  _449
REMARK  174  A    between atoms: _452  and  _454
REMARK  175  A    between atoms: _454  and  _455
REMARK  176  A    between atoms: _454  and  _457
REMARK  177  A    between atoms: _457  and  _458
REMARK  178  A    between atoms: _458  and  _459
REMARK  179  A    between atoms: _459  and  _460
REMARK  180  A    between atoms: _469  and  _471
REMARK  181  A    between atoms: _471  and  _472
REMARK  182  A    between atoms: _471  and  _474
REMARK  183  A    between atoms: _474  and  _475
REMARK  184  A    between atoms: _478  and  _480
REMARK  185  A    between atoms: _480  and  _481
REMARK  186  A    between atoms: _480  and  _483
REMARK  187  A    between atoms: _483  and  _484
REMARK  188  A    between atoms: _487  and  _489
REMARK  189  A    between atoms: _489  and  _490
REMARK  190  A    between atoms: _489  and  _492
REMARK  191  A    between atoms: _492  and  _493
REMARK  192  A    between atoms: _493  and  _494
REMARK  193  A    between atoms: _494  and  _495
REMARK  194  A    between atoms: _504  and  _506
REMARK  195  A    between atoms: _506  and  _507
REMARK  196  A    between atoms: _506  and  _509
REMARK  197  A    between atoms: _509  and  _510
REMARK  198  A    between atoms: _513  and  _515
REMARK  199  A    between atoms: _515  and  _516
REMARK  200  A    between atoms: _515  and  _518
REMARK  201  A    between atoms: _518  and  _519
REMARK  202  A    between atoms: _519  and  _520
REMARK  203  A    between atoms: _520  and  _521
REMARK  204  A    between atoms: _521  and  _522
REMARK  205  A    between atoms: _526  and  _528
REMARK  206  A    between atoms: _528  and  _529
REMARK  207  A    between atoms: _528  and  _531
REMARK  208  A    between atoms: _531  and  _532
REMARK  209  A    between atoms: _532  and  _533
REMARK  210  A    between atoms: _538  and  _540
REMARK  211  A    between atoms: _540  and  _541
REMARK  212  A    between atoms: _540  and  _543
REMARK  213  A    between atoms: _543  and  _544
REMARK  214  A    between atoms: _549  and  _551
REMARK  215  A    between atoms: _551  and  _552
REMARK  216  A    between atoms: _555  and  _557
REMARK  217  A    between atoms: _557  and  _558
REMARK  218  A    between atoms: _557  and  _560
REMARK  219  A    between atoms: _560  and  _561
REMARK  220  A    between atoms: _564  and  _566
REMARK  221  A    between atoms: _566  and  _567
REMARK  222  A    between atoms: _566  and  _569
REMARK  223  A    between atoms: _569  and  _570
REMARK  224  A    between atoms: _570  and  _571
REMARK  225  A    between atoms: _571  and  _572
REMARK  226  A    between atoms: _581  and  _583
REMARK  227  A    between atoms: _583  and  _584
REMARK  228  A    between atoms: _583  and  _586
REMARK  229  A    between atoms: _589  and  _591
REMARK  230  A    between atoms: _591  and  _592
REMARK  231  A    between atoms: _591  and  _594
REMARK  232  A    between atoms: _594  and  _595
REMARK  233  A    between atoms: _600  and  _601
REMARK  234  A    between atoms: _603  and  _605
REMARK  235  A    between atoms: _605  and  _606
REMARK  236  A    between atoms: _605  and  _608
REMARK  237  A    between atoms: _608  and  _609
REMARK  238  A    between atoms: _611  and  _613
REMARK  239  A    between atoms: _613  and  _614
REMARK  240  A    between atoms: _613  and  _616
REMARK  241  A    between atoms: _616  and  _617
REMARK  242  A    between atoms: _622  and  _624
REMARK  243  A    between atoms: _624  and  _625
REMARK  244  A    between atoms: _624  and  _627
REMARK  245  A    between atoms: _627  and  _628
REMARK  246  A    between atoms: _628  and  _629
REMARK  247  A    between atoms: _632  and  _634
REMARK  248  A    between atoms: _634  and  _635
REMARK  249  A    between atoms: _634  and  _637
REMARK  250  A    between atoms: _637  and  _638
REMARK  251  A    between atoms: _643  and  _644
REMARK  252  A    between atoms: _646  and  _648
REMARK  253  A    between atoms: _648  and  _649
REMARK  254  A    between atoms: _652  and  _654
REMARK  255  A    between atoms: _654  and  _655
REMARK  256  A    between atoms: _654  and  _657
REMARK  257  A    between atoms: _657  and  _658
REMARK  258  A    between atoms: _662  and  _663
REMARK  259  A    between atoms: _668  and  _670
REMARK  260  A    between atoms: _670  and  _671
REMARK  261  A    between atoms: _670  and  _673
REMARK  262  A    between atoms: _673  and  _674
REMARK  263  A    between atoms: _677  and  _679
REMARK  264  A    between atoms: _679  and  _680
REMARK  265  A    between atoms: _679  and  _682
REMARK  266  A    between atoms: _682  and  _683
REMARK  267  A    between atoms: _683  and  _684
REMARK  268  A    between atoms: _689  and  _691
REMARK  269  A    between atoms: _691  and  _692
REMARK  270  A    between atoms: _691  and  _694
REMARK  271  A    between atoms: _694  and  _695
REMARK  272  A    between atoms: _698  and  _700
REMARK  273  A    between atoms: _700  and  _701
REMARK  274  A    between atoms: _700  and  _703
REMARK  275  A    between atoms: _703  and  _704
REMARK  276  A    between atoms: _707  and  _709
REMARK  277  A    between atoms: _709  and  _710
REMARK  278  A    between atoms: _709  and  _712
REMARK  279  A    between atoms: _712  and  _713
REMARK                            x       y       z     vdW  Elec       q    Type
REMARK                         _______ _______ _______ _____ _____    ______ ____
ROOT
ATOM      1  O   HOH     1     -55.433  12.357  78.153  0.00  0.00    +0.000 OA
ENDROOT
TORSDOF 0
REMARK  Name = ../refined-set-2016/4loh/4loh_pocket.pdb
REMARK  279 active torsions:
REMARK  status: ('A' for Active; 'I' for Inactive)
REMARK    1  A    between atoms: _1  and  _3
REMARK    2  A    between atoms: _3  and  _4
REMARK    3  A    between atoms: _6  and  _8
REMARK    4  A    between atoms: _8  and  _9
REMARK    5  A    between atoms: _8  and  _11
REMARK    6  A    between atoms: _11  and  _12
REMARK    7  A    between atoms: _15  and  _17
REMARK    8  A    between atoms: _17  and  _18
REMARK    9  A    between atoms: _21  and  _23
REMARK   10  A    between atoms: _23  and  _24
REMARK   11  A    between atoms: _23  and  _26
REMARK   12  A    between atoms: _26  and  _27
REMARK   13  A    between atoms: _37  and  _39
REMARK   14  A    between atoms: _39  and  _40
REMARK   15  A    between atoms: _39  and  _42
REMARK   16  A    between atoms: _42  and  _43
REMARK   17  A    between atoms: _45  and  _47
REMARK   18  A    between atoms: _47  and  _48
REMARK   19  A    between atoms: _47  and  _50
REMARK   20  A    between atoms: _50  and  _51
REMARK   21  A    between atoms: _56  and  _57
REMARK   22  A    between atoms: _59  and  _61
REMARK   23  A    between atoms: _61  and  _62
REMARK   24  A    between atoms: _61  and  _64
REMARK   25  A    between atoms: _64  and  _65
REMARK   26  A    between atoms: _70  and  _71
REMARK   27  A    between atoms: _73  and  _75
REMARK   28  A    between atoms: _75  and  _76
REMARK   29  A    between atoms: _75  and  _78
REMARK   30  A    between atoms: _78  and  _79
REMARK   31  A    between atoms: _82  and  _84
REMARK   32  A    between atoms: _84  and  _85
REMARK   33  A    between atoms: _87  and  _89
REMARK   34  A    between atoms: _89  and  _90
REMARK   35  A    between atoms: _89  and  _92
REMARK   36  A    between atoms: _92  and  _93
REMARK   37  A    between atoms: _98  and  _99
REMARK   38  A    between atoms: _101  and  _103
REMARK   39  A    between atoms: _103  and  _104
REMARK   40  A    between atoms: _103  and  _106
REMARK   41  A    between atoms: _106  and  _107
REMARK   42  A    between atoms: _110  and  _112
REMARK   43  A    between atoms: _112  and  _113
REMARK   44  A    between atoms: _112  and  _115
REMARK   45  A    between atoms: _115  and  _116
REMARK   46  A    between atoms: _116  and  _117
REMARK   47  A    between atoms: _117  and  _118
REMARK   48  A    between atoms: _127  and  _129
REMARK   49  A    between atoms: _129  and  _130
REMARK   50  A    between atoms: _129  and  _132
REMARK   51  A    between atoms: _132  and  _133
REMARK   52  A    between atoms: _136  and  _138
REMARK   53  A    between atoms: _138  and  _139
REMARK   54  A    between atoms: _138  and  _141
REMARK   55  A    between atoms: _141  and  _142
REMARK   56  A    between atoms: _145  and  _147
REMARK   57  A    between atoms: _147  and  _148
REMARK   58  A    between atoms: _147  and  _150
REMARK   59  A    between atoms: _150  and  _151
REMARK   60  A    between atoms: _151  and  _152
REMARK   61  A    between atoms: _157  and  _159
REMARK   62  A    between atoms: _159  and  _160
REMARK   63  A    between atoms: _159  and  _162
REMARK   64  A    between atoms: _162  and  _163
REMARK   65  A    between atoms: _168  and  _170
REMARK   66  A    between atoms: _170  and  _171
REMARK   67  A    between atoms: _174  and  _176
REMARK   68  A    between atoms: _176  and  _177
REMARK   69  A    between atoms: _179  and  _181
REMARK   70  A    between atoms: _181  and  _182
REMARK   71  A    between atoms: _181  and  _184
REMARK   72  A    between atoms: _184  and  _185
REMARK   73  A    between atoms: _188  and  _190
REMARK   74  A    between atoms: _190  and  _191
REMARK   75  A    between atoms: _190  and  _193
REMARK   76  A    between atoms: _193  and  _194
REMARK   77  A    between atoms: _194  and  _195
REMARK   78  A    between atoms: _195  and  _196
REMARK   79  A    between atoms: _205  and  _207
REMARK   80  A    between atoms: _207  and  _208
REMARK   81  A    between atoms: _207  and  _210
REMARK   82  A    between atoms: _213  and  _215
REMARK   83  A    between atoms: _215  and  _216
REMARK   84  A    between atoms: _215  and  _218
REMARK   85  A    between atoms: _218  and  _219
REMARK   86  A    between atoms: _224  and  _225
REMARK   87  A    between atoms: _227  and  _229
REMARK   88  A    between atoms: _229  and  _230
REMARK   89  A    between atoms: _229  and  _232
REMARK   90  A    between atoms: _232  and  _233
REMARK   91  A    between atoms: _235  and  _237
REMARK   92  A    between atoms: _237  and  _238
REMARK   93  A    between atoms: _237  and  _240
REMARK   94  A    between atoms: _240  and  _241
REMARK   95  A    between atoms: _246  and  _248
REMARK   96  A    between atoms: _248  and  _249
REMARK   97  A    between atoms: _248  and  _251
REMARK   98  A    between atoms: _251  and  _252
REMARK   99  A    between atoms: _252  and  _253
REMARK  100  A    between atoms: _256  and  _258
REMARK  101  A    between atoms: _258  and  _259
REMARK  102  A    between atoms: _258  and  _261
REMARK  103  A    between atoms: _261  and  _262
REMARK  104  A    between atoms: _267  and  _268
REMARK  105  A    between atoms: _270  and  _272
REMARK  106  A    between atoms: _272  and  _273
REMARK  107  A    between atoms: _276  and  _278
REMARK  108  A    between atoms: _278  and  _279
REMARK  109  A    between atoms: _278  and  _281
REMARK  110  A    between atoms: _281  and  _282
REMARK  111  A    between atoms: _286  and  _287
REMARK  112  A    between atoms: _292  and  _294
REMARK  113  A    between atoms: _294  and  _295
REMARK  114  A    between atoms: _294  and  _297
REMARK  115  A    between atoms: _297  and  _298
REMARK  116  A    between atoms: _301  and  _303
REMARK  117  A    between atoms: _303  and  _304
REMARK  118  A    between atoms: _303  and  _306
REMARK  119  A    between atoms: _306  and  _307
REMARK  120  A    between atoms: _307  and  _308
REMARK  121  A    between atoms: _313  and  _315
REMARK  122  A    between atoms: _315  and  _316
REMARK  123  A    between atoms: _315  and  _318
REMARK  124  A    between atoms: _318  and  _319
REMARK  125  A    between atoms: _322  and  _324
REMARK  126  A    between atoms: _324  and  _325
REMARK  127  A    between atoms: _324  and  _327
REMARK  128  A    between atoms: _327  and  _328
REMARK  129  A    between atoms: _331  and  _333
REMARK  130  A    between atoms: _333  and  _334
REMARK  131  A    between atoms: _333  and  _336
REMARK  132  A    between atoms: _336  and  _337
REMARK  133  A    between atoms: _343  and  _345
REMARK  134  A    between atoms: _345  and  _346
REMARK  135  A    between atoms: _348  and  _350
REMARK  136  A    between atoms: _350  and  _351
REMARK  137  A    between atoms: _350  and  _353
REMARK  138  A    between atoms: _353  and  _354
REMARK  139  A    between atoms: _357  and  _359
REMARK  140  A    between atoms: _359  and  _360
REMARK  141  A    between atoms: _363  and  _365
REMARK  142  A    between atoms: _365  and  _366
REMARK  143  A    between atoms: _365  and  _368
REMARK  144  A    between atoms: _368  and  _369
REMARK  145  A    between atoms: _379  and  _381
REMARK  146  A    between atoms: _381  and  _382
REMARK  147  A    between atoms: _381  and  _384
REMARK  148  A    between atoms: _384  and  _385
REMARK  149  A    between atoms: _387  and  _389
REMARK  150  A    between atoms: _389  and  _390
REMARK  151  A    between atoms: _389  and  _392
REMARK  152  A    between atoms: _392  and  _393
REMARK  153  A    between atoms: _398  and  _399
REMARK  154  A    between atoms: _401  and  _403
REMARK  155  A    between atoms: _403  and  _404
REMARK  156  A    between atoms: _403  and  _406
REMARK  157  A    between atoms: _406  and  _407
REMARK  158  A    between atoms: _412  and  _413
REMARK  159  A    between atoms: _415  and  _417
REMARK  160  A    between atoms: _417  and  _418
REMARK  161  A    between atoms: _417  and  _420
REMARK  162  A    between atoms: _420  and  _421
REMARK  163  A    between atoms: _424  and  _426
REMARK  164  A    between atoms: _426  and  _427
REMARK  165  A    between atoms: _429  and  _431
REMARK  166  A    between atoms: _431  and  _432
REMARK  167  A    between atoms: _431  and  _434
REMARK  168  A    between atoms: _434  and  _435
REMARK  169  A    between atoms: _440  and  _441
REMARK  170  A    between atoms: _443  and  _445
REMARK  171  A    between atoms: _445  and  _446
REMARK  172  A    between atoms: _445  and  _448
REMARK  173  A    between atoms: _448  and  _449
REMARK  174  A    between atoms: _452  and  _454
REMARK  175  A    between atoms: _454  and  _455
REMARK  176  A    between atoms: _454  and  _457
REMARK  177  A    between atoms: _457  and  _458
REMARK  178  A    between atoms: _458  and  _459
REMARK  179  A    between atoms: _459  and  _460
REMARK  180  A    between atoms: _469  and  _471
REMARK  181  A    between atoms: _471  and  _472
REMARK  182  A    between atoms: _471  and  _474
REMARK  183  A    between atoms: _474  and  _475
REMARK  184  A    between atoms: _478  and  _480
REMARK  185  A    between atoms: _480  and  _481
REMARK  186  A    between atoms: _480  and  _483
REMARK  187  A    between atoms: _483  and  _484
REMARK  188  A    between atoms: _487  and  _489
REMARK  189  A    between atoms: _489  and  _490
REMARK  190  A    between atoms: _489  and  _492
REMARK  191  A    between atoms: _492  and  _493
REMARK  192  A    between atoms: _493  and  _494
REMARK  193  A    between atoms: _494  and  _495
REMARK  194  A    between atoms: _504  and  _506
REMARK  195  A    between atoms: _506  and  _507
REMARK  196  A    between atoms: _506  and  _509
REMARK  197  A    between atoms: _509  and  _510
REMARK  198  A    between atoms: _513  and  _515
REMARK  199  A    between atoms: _515  and  _516
REMARK  200  A    between atoms: _515  and  _518
REMARK  201  A    between atoms: _518  and  _519
REMARK  202  A    between atoms: _519  and  _520
REMARK  203  A    between atoms: _520  and  _521
REMARK  204  A    between atoms: _521  and  _522
REMARK  205  A    between atoms: _526  and  _528
REMARK  206  A    between atoms: _528  and  _529
REMARK  207  A    between atoms: _528  and  _531
REMARK  208  A    between atoms: _531  and  _532
REMARK  209  A    between atoms: _532  and  _533
REMARK  210  A    between atoms: _538  and  _540
REMARK  211  A    between atoms: _540  and  _541
REMARK  212  A    between atoms: _540  and  _543
REMARK  213  A    between atoms: _543  and  _544
REMARK  214  A    between atoms: _549  and  _551
REMARK  215  A    between atoms: _551  and  _552
REMARK  216  A    between atoms: _555  and  _557
REMARK  217  A    between atoms: _557  and  _558
REMARK  218  A    between atoms: _557  and  _560
REMARK  219  A    between atoms: _560  and  _561
REMARK  220  A    between atoms: _564  and  _566
REMARK  221  A    between atoms: _566  and  _567
REMARK  222  A    between atoms: _566  and  _569
REMARK  223  A    between atoms: _569  and  _570
REMARK  224  A    between atoms: _570  and  _571
REMARK  225  A    between atoms: _571  and  _572
REMARK  226  A    between atoms: _581  and  _583
REMARK  227  A    between atoms: _583  and  _584
REMARK  228  A    between atoms: _583  and  _586
REMARK  229  A    between atoms: _589  and  _591
REMARK  230  A    between atoms: _591  and  _592
REMARK  231  A    between atoms: _591  and  _594
REMARK  232  A    between atoms: _594  and  _595
REMARK  233  A    between atoms: _600  and  _601
REMARK  234  A    between atoms: _603  and  _605
REMARK  235  A    between atoms: _605  and  _606
REMARK  236  A    between atoms: _605  and  _608
REMARK  237  A    between atoms: _608  and  _609
REMARK  238  A    between atoms: _611  and  _613
REMARK  239  A    between atoms: _613  and  _614
REMARK  240  A    between atoms: _613  and  _616
REMARK  241  A    between atoms: _616  and  _617
REMARK  242  A    between atoms: _622  and  _624
REMARK  243  A    between atoms: _624  and  _625
REMARK  244  A    between atoms: _624  and  _627
REMARK  245  A    between atoms: _627  and  _628
REMARK  246  A    between atoms: _628  and  _629
REMARK  247  A    between atoms: _632  and  _634
REMARK  248  A    between atoms: _634  and  _635
REMARK  249  A    between atoms: _634  and  _637
REMARK  250  A    between atoms: _637  and  _638
REMARK  251  A    between atoms: _643  and  _644
REMARK  252  A    between atoms: _646  and  _648
REMARK  253  A    between atoms: _648  and  _649
REMARK  254  A    between atoms: _652  and  _654
REMARK  255  A    between atoms: _654  and  _655
REMARK  256  A    between atoms: _654  and  _657
REMARK  257  A    between atoms: _657  and  _658
REMARK  258  A    between atoms: _662  and  _663
REMARK  259  A    between atoms: _668  and  _670
REMARK  260  A    between atoms: _670  and  _671
REMARK  261  A    between atoms: _670  and  _673
REMARK  262  A    between atoms: _673  and  _674
REMARK  263  A    between atoms: _677  and  _679
REMARK  264  A    between atoms: _679  and  _680
REMARK  265  A    between atoms: _679  and  _682
REMARK  266  A    between atoms: _682  and  _683
REMARK  267  A    between atoms: _683  and  _684
REMARK  268  A    between atoms: _689  and  _691
REMARK  269  A    between atoms: _691  and  _692
REMARK  270  A    between atoms: _691  and  _694
REMARK  271  A    between atoms: _694  and  _695
REMARK  272  A    between atoms: _698  and  _700
REMARK  273  A    between atoms: _700  and  _701
REMARK  274  A    between atoms: _700  and  _703
REMARK  275  A    between atoms: _703  and  _704
REMARK  276  A    between atoms: _707  and  _709
REMARK  277  A    between atoms: _709  and  _710
REMARK  278  A    between atoms: _709  and  _712
REMARK  279  A    between atoms: _712  and  _713
REMARK                            x       y       z     vdW  Elec       q    Type
REMARK                         _______ _______ _______ _____ _____    ______ ____
ROOT
ATOM      1  O   HOH     1     -55.572  18.767  75.345  0.00  0.00    +0.000 OA
ENDROOT
TORSDOF 0
REMARK  Name = ../refined-set-2016/4loh/4loh_pocket.pdb
REMARK  279 active torsions:
REMARK  status: ('A' for Active; 'I' for Inactive)
REMARK    1  A    between atoms: _1  and  _3
REMARK    2  A    between atoms: _3  and  _4
REMARK    3  A    between atoms: _6  and  _8
REMARK    4  A    between atoms: _8  and  _9
REMARK    5  A    between atoms: _8  and  _11
REMARK    6  A    between atoms: _11  and  _12
REMARK    7  A    between atoms: _15  and  _17
REMARK    8  A    between atoms: _17  and  _18
REMARK    9  A    between atoms: _21  and  _23
REMARK   10  A    between atoms: _23  and  _24
REMARK   11  A    between atoms: _23  and  _26
REMARK   12  A    between atoms: _26  and  _27
REMARK   13  A    between atoms: _37  and  _39
REMARK   14  A    between atoms: _39  and  _40
REMARK   15  A    between atoms: _39  and  _42
REMARK   16  A    between atoms: _42  and  _43
REMARK   17  A    between atoms: _45  and  _47
REMARK   18  A    between atoms: _47  and  _48
REMARK   19  A    between atoms: _47  and  _50
REMARK   20  A    between atoms: _50  and  _51
REMARK   21  A    between atoms: _56  and  _57
REMARK   22  A    between atoms: _59  and  _61
REMARK   23  A    between atoms: _61  and  _62
REMARK   24  A    between atoms: _61  and  _64
REMARK   25  A    between atoms: _64  and  _65
REMARK   26  A    between atoms: _70  and  _71
REMARK   27  A    between atoms: _73  and  _75
REMARK   28  A    between atoms: _75  and  _76
REMARK   29  A    between atoms: _75  and  _78
REMARK   30  A    between atoms: _78  and  _79
REMARK   31  A    between atoms: _82  and  _84
REMARK   32  A    between atoms: _84  and  _85
REMARK   33  A    between atoms: _87  and  _89
REMARK   34  A    between atoms: _89  and  _90
REMARK   35  A    between atoms: _89  and  _92
REMARK   36  A    between atoms: _92  and  _93
REMARK   37  A    between atoms: _98  and  _99
REMARK   38  A    between atoms: _101  and  _103
REMARK   39  A    between atoms: _103  and  _104
REMARK   40  A    between atoms: _103  and  _106
REMARK   41  A    between atoms: _106  and  _107
REMARK   42  A    between atoms: _110  and  _112
REMARK   43  A    between atoms: _112  and  _113
REMARK   44  A    between atoms: _112  and  _115
REMARK   45  A    between atoms: _115  and  _116
REMARK   46  A    between atoms: _116  and  _117
REMARK   47  A    between atoms: _117  and  _118
REMARK   48  A    between atoms: _127  and  _129
REMARK   49  A    between atoms: _129  and  _130
REMARK   50  A    between atoms: _129  and  _132
REMARK   51  A    between atoms: _132  and  _133
REMARK   52  A    between atoms: _136  and  _138
REMARK   53  A    between atoms: _138  and  _139
REMARK   54  A    between atoms: _138  and  _141
REMARK   55  A    between atoms: _141  and  _142
REMARK   56  A    between atoms: _145  and  _147
REMARK   57  A    between atoms: _147  and  _148
REMARK   58  A    between atoms: _147  and  _150
REMARK   59  A    between atoms: _150  and  _151
REMARK   60  A    between atoms: _151  and  _152
REMARK   61  A    between atoms: _157  and  _159
REMARK   62  A    between atoms: _159  and  _160
REMARK   63  A    between atoms: _159  and  _162
REMARK   64  A    between atoms: _162  and  _163
REMARK   65  A    between atoms: _168  and  _170
REMARK   66  A    between atoms: _170  and  _171
REMARK   67  A    between atoms: _174  and  _176
REMARK   68  A    between atoms: _176  and  _177
REMARK   69  A    between atoms: _179  and  _181
REMARK   70  A    between atoms: _181  and  _182
REMARK   71  A    between atoms: _181  and  _184
REMARK   72  A    between atoms: _184  and  _185
REMARK   73  A    between atoms: _188  and  _190
REMARK   74  A    between atoms: _190  and  _191
REMARK   75  A    between atoms: _190  and  _193
REMARK   76  A    between atoms: _193  and  _194
REMARK   77  A    between atoms: _194  and  _195
REMARK   78  A    between atoms: _195  and  _196
REMARK   79  A    between atoms: _205  and  _207
REMARK   80  A    between atoms: _207  and  _208
REMARK   81  A    between atoms: _207  and  _210
REMARK   82  A    between atoms: _213  and  _215
REMARK   83  A    between atoms: _215  and  _216
REMARK   84  A    between atoms: _215  and  _218
REMARK   85  A    between atoms: _218  and  _219
REMARK   86  A    between atoms: _224  and  _225
REMARK   87  A    between atoms: _227  and  _229
REMARK   88  A    between atoms: _229  and  _230
REMARK   89  A    between atoms: _229  and  _232
REMARK   90  A    between atoms: _232  and  _233
REMARK   91  A    between atoms: _235  and  _237
REMARK   92  A    between atoms: _237  and  _238
REMARK   93  A    between atoms: _237  and  _240
REMARK   94  A    between atoms: _240  and  _241
REMARK   95  A    between atoms: _246  and  _248
REMARK   96  A    between atoms: _248  and  _249
REMARK   97  A    between atoms: _248  and  _251
REMARK   98  A    between atoms: _251  and  _252
REMARK   99  A    between atoms: _252  and  _253
REMARK  100  A    between atoms: _256  and  _258
REMARK  101  A    between atoms: _258  and  _259
REMARK  102  A    between atoms: _258  and  _261
REMARK  103  A    between atoms: _261  and  _262
REMARK  104  A    between atoms: _267  and  _268
REMARK  105  A    between atoms: _270  and  _272
REMARK  106  A    between atoms: _272  and  _273
REMARK  107  A    between atoms: _276  and  _278
REMARK  108  A    between atoms: _278  and  _279
REMARK  109  A    between atoms: _278  and  _281
REMARK  110  A    between atoms: _281  and  _282
REMARK  111  A    between atoms: _286  and  _287
REMARK  112  A    between atoms: _292  and  _294
REMARK  113  A    between atoms: _294  and  _295
REMARK  114  A    between atoms: _294  and  _297
REMARK  115  A    between atoms: _297  and  _298
REMARK  116  A    between atoms: _301  and  _303
REMARK  117  A    between atoms: _303  and  _304
REMARK  118  A    between atoms: _303  and  _306
REMARK  119  A    between atoms: _306  and  _307
REMARK  120  A    between atoms: _307  and  _308
REMARK  121  A    between atoms: _313  and  _315
REMARK  122  A    between atoms: _315  and  _316
REMARK  123  A    between atoms: _315  and  _318
REMARK  124  A    between atoms: _318  and  _319
REMARK  125  A    between atoms: _322  and  _324
REMARK  126  A    between atoms: _324  and  _325
REMARK  127  A    between atoms: _324  and  _327
REMARK  128  A    between atoms: _327  and  _328
REMARK  129  A    between atoms: _331  and  _333
REMARK  130  A    between atoms: _333  and  _334
REMARK  131  A    between atoms: _333  and  _336
REMARK  132  A    between atoms: _336  and  _337
REMARK  133  A    between atoms: _343  and  _345
REMARK  134  A    between atoms: _345  and  _346
REMARK  135  A    between atoms: _348  and  _350
REMARK  136  A    between atoms: _350  and  _351
REMARK  137  A    between atoms: _350  and  _353
REMARK  138  A    between atoms: _353  and  _354
REMARK  139  A    between atoms: _357  and  _359
REMARK  140  A    between atoms: _359  and  _360
REMARK  141  A    between atoms: _363  and  _365
REMARK  142  A    between atoms: _365  and  _366
REMARK  143  A    between atoms: _365  and  _368
REMARK  144  A    between atoms: _368  and  _369
REMARK  145  A    between atoms: _379  and  _381
REMARK  146  A    between atoms: _381  and  _382
REMARK  147  A    between atoms: _381  and  _384
REMARK  148  A    between atoms: _384  and  _385
REMARK  149  A    between atoms: _387  and  _389
REMARK  150  A    between atoms: _389  and  _390
REMARK  151  A    between atoms: _389  and  _392
REMARK  152  A    between atoms: _392  and  _393
REMARK  153  A    between atoms: _398  and  _399
REMARK  154  A    between atoms: _401  and  _403
REMARK  155  A    between atoms: _403  and  _404
REMARK  156  A    between atoms: _403  and  _406
REMARK  157  A    between atoms: _406  and  _407
REMARK  158  A    between atoms: _412  and  _413
REMARK  159  A    between atoms: _415  and  _417
REMARK  160  A    between atoms: _417  and  _418
REMARK  161  A    between atoms: _417  and  _420
REMARK  162  A    between atoms: _420  and  _421
REMARK  163  A    between atoms: _424  and  _426
REMARK  164  A    between atoms: _426  and  _427
REMARK  165  A    between atoms: _429  and  _431
REMARK  166  A    between atoms: _431  and  _432
REMARK  167  A    between atoms: _431  and  _434
REMARK  168  A    between atoms: _434  and  _435
REMARK  169  A    between atoms: _440  and  _441
REMARK  170  A    between atoms: _443  and  _445
REMARK  171  A    between atoms: _445  and  _446
REMARK  172  A    between atoms: _445  and  _448
REMARK  173  A    between atoms: _448  and  _449
REMARK  174  A    between atoms: _452  and  _454
REMARK  175  A    between atoms: _454  and  _455
REMARK  176  A    between atoms: _454  and  _457
REMARK  177  A    between atoms: _457  and  _458
REMARK  178  A    between atoms: _458  and  _459
REMARK  179  A    between atoms: _459  and  _460
REMARK  180  A    between atoms: _469  and  _471
REMARK  181  A    between atoms: _471  and  _472
REMARK  182  A    between atoms: _471  and  _474
REMARK  183  A    between atoms: _474  and  _475
REMARK  184  A    between atoms: _478  and  _480
REMARK  185  A    between atoms: _480  and  _481
REMARK  186  A    between atoms: _480  and  _483
REMARK  187  A    between atoms: _483  and  _484
REMARK  188  A    between atoms: _487  and  _489
REMARK  189  A    between atoms: _489  and  _490
REMARK  190  A    between atoms: _489  and  _492
REMARK  191  A    between atoms: _492  and  _493
REMARK  192  A    between atoms: _493  and  _494
REMARK  193  A    between atoms: _494  and  _495
REMARK  194  A    between atoms: _504  and  _506
REMARK  195  A    between atoms: _506  and  _507
REMARK  196  A    between atoms: _506  and  _509
REMARK  197  A    between atoms: _509  and  _510
REMARK  198  A    between atoms: _513  and  _515
REMARK  199  A    between atoms: _515  and  _516
REMARK  200  A    between atoms: _515  and  _518
REMARK  201  A    between atoms: _518  and  _519
REMARK  202  A    between atoms: _519  and  _520
REMARK  203  A    between atoms: _520  and  _521
REMARK  204  A    between atoms: _521  and  _522
REMARK  205  A    between atoms: _526  and  _528
REMARK  206  A    between atoms: _528  and  _529
REMARK  207  A    between atoms: _528  and  _531
REMARK  208  A    between atoms: _531  and  _532
REMARK  209  A    between atoms: _532  and  _533
REMARK  210  A    between atoms: _538  and  _540
REMARK  211  A    between atoms: _540  and  _541
REMARK  212  A    between atoms: _540  and  _543
REMARK  213  A    between atoms: _543  and  _544
REMARK  214  A    between atoms: _549  and  _551
REMARK  215  A    between atoms: _551  and  _552
REMARK  216  A    between atoms: _555  and  _557
REMARK  217  A    between atoms: _557  and  _558
REMARK  218  A    between atoms: _557  and  _560
REMARK  219  A    between atoms: _560  and  _561
REMARK  220  A    between atoms: _564  and  _566
REMARK  221  A    between atoms: _566  and  _567
REMARK  222  A    between atoms: _566  and  _569
REMARK  223  A    between atoms: _569  and  _570
REMARK  224  A    between atoms: _570  and  _571
REMARK  225  A    between atoms: _571  and  _572
REMARK  226  A    between atoms: _581  and  _583
REMARK  227  A    between atoms: _583  and  _584
REMARK  228  A    between atoms: _583  and  _586
REMARK  229  A    between atoms: _589  and  _591
REMARK  230  A    between atoms: _591  and  _592
REMARK  231  A    between atoms: _591  and  _594
REMARK  232  A    between atoms: _594  and  _595
REMARK  233  A    between atoms: _600  and  _601
REMARK  234  A    between atoms: _603  and  _605
REMARK  235  A    between atoms: _605  and  _606
REMARK  236  A    between atoms: _605  and  _608
REMARK  237  A    between atoms: _608  and  _609
REMARK  238  A    between atoms: _611  and  _613
REMARK  239  A    between atoms: _613  and  _614
REMARK  240  A    between atoms: _613  and  _616
REMARK  241  A    between atoms: _616  and  _617
REMARK  242  A    between atoms: _622  and  _624
REMARK  243  A    between atoms: _624  and  _625
REMARK  244  A    between atoms: _624  and  _627
REMARK  245  A    between atoms: _627  and  _628
REMARK  246  A    between atoms: _628  and  _629
REMARK  247  A    between atoms: _632  and  _634
REMARK  248  A    between atoms: _634  and  _635
REMARK  249  A    between atoms: _634  and  _637
REMARK  250  A    between atoms: _637  and  _638
REMARK  251  A    between atoms: _643  and  _644
REMARK  252  A    between atoms: _646  and  _648
REMARK  253  A    between atoms: _648  and  _649
REMARK  254  A    between atoms: _652  and  _654
REMARK  255  A    between atoms: _654  and  _655
REMARK  256  A    between atoms: _654  and  _657
REMARK  257  A    between atoms: _657  and  _658
REMARK  258  A    between atoms: _662  and  _663
REMARK  259  A    between atoms: _668  and  _670
REMARK  260  A    between atoms: _670  and  _671
REMARK  261  A    between atoms: _670  and  _673
REMARK  262  A    between atoms: _673  and  _674
REMARK  263  A    between atoms: _677  and  _679
REMARK  264  A    between atoms: _679  and  _680
REMARK  265  A    between atoms: _679  and  _682
REMARK  266  A    between atoms: _682  and  _683
REMARK  267  A    between atoms: _683  and  _684
REMARK  268  A    between atoms: _689  and  _691
REMARK  269  A    between atoms: _691  and  _692
REMARK  270  A    between atoms: _691  and  _694
REMARK  271  A    between atoms: _694  and  _695
REMARK  272  A    between atoms: _698  and  _700
REMARK  273  A    between atoms: _700  and  _701
REMARK  274  A    between atoms: _700  and  _703
REMARK  275  A    between atoms: _703  and  _704
REMARK  276  A    between atoms: _707  and  _709
REMARK  277  A    between atoms: _709  and  _710
REMARK  278  A    between atoms: _709  and  _712
REMARK  279  A    between atoms: _712  and  _713
REMARK                            x       y       z     vdW  Elec       q    Type
REMARK                         _______ _______ _______ _____ _____    ______ ____
ROOT
ATOM      1  O   HOH     1     -54.435   9.176  67.897  0.00  0.00    +0.000 OA
ENDROOT
TORSDOF 0
REMARK  Name = ../refined-set-2016/4loh/4loh_pocket.pdb
REMARK  279 active torsions:
REMARK  status: ('A' for Active; 'I' for Inactive)
REMARK    1  A    between atoms: _1  and  _3
REMARK    2  A    between atoms: _3  and  _4
REMARK    3  A    between atoms: _6  and  _8
REMARK    4  A    between atoms: _8  and  _9
REMARK    5  A    between atoms: _8  and  _11
REMARK    6  A    between atoms: _11  and  _12
REMARK    7  A    between atoms: _15  and  _17
REMARK    8  A    between atoms: _17  and  _18
REMARK    9  A    between atoms: _21  and  _23
REMARK   10  A    between atoms: _23  and  _24
REMARK   11  A    between atoms: _23  and  _26
REMARK   12  A    between atoms: _26  and  _27
REMARK   13  A    between atoms: _37  and  _39
REMARK   14  A    between atoms: _39  and  _40
REMARK   15  A    between atoms: _39  and  _42
REMARK   16  A    between atoms: _42  and  _43
REMARK   17  A    between atoms: _45  and  _47
REMARK   18  A    between atoms: _47  and  _48
REMARK   19  A    between atoms: _47  and  _50
REMARK   20  A    between atoms: _50  and  _51
REMARK   21  A    between atoms: _56  and  _57
REMARK   22  A    between atoms: _59  and  _61
REMARK   23  A    between atoms: _61  and  _62
REMARK   24  A    between atoms: _61  and  _64
REMARK   25  A    between atoms: _64  and  _65
REMARK   26  A    between atoms: _70  and  _71
REMARK   27  A    between atoms: _73  and  _75
REMARK   28  A    between atoms: _75  and  _76
REMARK   29  A    between atoms: _75  and  _78
REMARK   30  A    between atoms: _78  and  _79
REMARK   31  A    between atoms: _82  and  _84
REMARK   32  A    between atoms: _84  and  _85
REMARK   33  A    between atoms: _87  and  _89
REMARK   34  A    between atoms: _89  and  _90
REMARK   35  A    between atoms: _89  and  _92
REMARK   36  A    between atoms: _92  and  _93
REMARK   37  A    between atoms: _98  and  _99
REMARK   38  A    between atoms: _101  and  _103
REMARK   39  A    between atoms: _103  and  _104
REMARK   40  A    between atoms: _103  and  _106
REMARK   41  A    between atoms: _106  and  _107
REMARK   42  A    between atoms: _110  and  _112
REMARK   43  A    between atoms: _112  and  _113
REMARK   44  A    between atoms: _112  and  _115
REMARK   45  A    between atoms: _115  and  _116
REMARK   46  A    between atoms: _116  and  _117
REMARK   47  A    between atoms: _117  and  _118
REMARK   48  A    between atoms: _127  and  _129
REMARK   49  A    between atoms: _129  and  _130
REMARK   50  A    between atoms: _129  and  _132
REMARK   51  A    between atoms: _132  and  _133
REMARK   52  A    between atoms: _136  and  _138
REMARK   53  A    between atoms: _138  and  _139
REMARK   54  A    between atoms: _138  and  _141
REMARK   55  A    between atoms: _141  and  _142
REMARK   56  A    between atoms: _145  and  _147
REMARK   57  A    between atoms: _147  and  _148
REMARK   58  A    between atoms: _147  and  _150
REMARK   59  A    between atoms: _150  and  _151
REMARK   60  A    between atoms: _151  and  _152
REMARK   61  A    between atoms: _157  and  _159
REMARK   62  A    between atoms: _159  and  _160
REMARK   63  A    between atoms: _159  and  _162
REMARK   64  A    between atoms: _162  and  _163
REMARK   65  A    between atoms: _168  and  _170
REMARK   66  A    between atoms: _170  and  _171
REMARK   67  A    between atoms: _174  and  _176
REMARK   68  A    between atoms: _176  and  _177
REMARK   69  A    between atoms: _179  and  _181
REMARK   70  A    between atoms: _181  and  _182
REMARK   71  A    between atoms: _181  and  _184
REMARK   72  A    between atoms: _184  and  _185
REMARK   73  A    between atoms: _188  and  _190
REMARK   74  A    between atoms: _190  and  _191
REMARK   75  A    between atoms: _190  and  _193
REMARK   76  A    between atoms: _193  and  _194
REMARK   77  A    between atoms: _194  and  _195
REMARK   78  A    between atoms: _195  and  _196
REMARK   79  A    between atoms: _205  and  _207
REMARK   80  A    between atoms: _207  and  _208
REMARK   81  A    between atoms: _207  and  _210
REMARK   82  A    between atoms: _213  and  _215
REMARK   83  A    between atoms: _215  and  _216
REMARK   84  A    between atoms: _215  and  _218
REMARK   85  A    between atoms: _218  and  _219
REMARK   86  A    between atoms: _224  and  _225
REMARK   87  A    between atoms: _227  and  _229
REMARK   88  A    between atoms: _229  and  _230
REMARK   89  A    between atoms: _229  and  _232
REMARK   90  A    between atoms: _232  and  _233
REMARK   91  A    between atoms: _235  and  _237
REMARK   92  A    between atoms: _237  and  _238
REMARK   93  A    between atoms: _237  and  _240
REMARK   94  A    between atoms: _240  and  _241
REMARK   95  A    between atoms: _246  and  _248
REMARK   96  A    between atoms: _248  and  _249
REMARK   97  A    between atoms: _248  and  _251
REMARK   98  A    between atoms: _251  and  _252
REMARK   99  A    between atoms: _252  and  _253
REMARK  100  A    between atoms: _256  and  _258
REMARK  101  A    between atoms: _258  and  _259
REMARK  102  A    between atoms: _258  and  _261
REMARK  103  A    between atoms: _261  and  _262
REMARK  104  A    between atoms: _267  and  _268
REMARK  105  A    between atoms: _270  and  _272
REMARK  106  A    between atoms: _272  and  _273
REMARK  107  A    between atoms: _276  and  _278
REMARK  108  A    between atoms: _278  and  _279
REMARK  109  A    between atoms: _278  and  _281
REMARK  110  A    between atoms: _281  and  _282
REMARK  111  A    between atoms: _286  and  _287
REMARK  112  A    between atoms: _292  and  _294
REMARK  113  A    between atoms: _294  and  _295
REMARK  114  A    between atoms: _294  and  _297
REMARK  115  A    between atoms: _297  and  _298
REMARK  116  A    between atoms: _301  and  _303
REMARK  117  A    between atoms: _303  and  _304
REMARK  118  A    between atoms: _303  and  _306
REMARK  119  A    between atoms: _306  and  _307
REMARK  120  A    between atoms: _307  and  _308
REMARK  121  A    between atoms: _313  and  _315
REMARK  122  A    between atoms: _315  and  _316
REMARK  123  A    between atoms: _315  and  _318
REMARK  124  A    between atoms: _318  and  _319
REMARK  125  A    between atoms: _322  and  _324
REMARK  126  A    between atoms: _324  and  _325
REMARK  127  A    between atoms: _324  and  _327
REMARK  128  A    between atoms: _327  and  _328
REMARK  129  A    between atoms: _331  and  _333
REMARK  130  A    between atoms: _333  and  _334
REMARK  131  A    between atoms: _333  and  _336
REMARK  132  A    between atoms: _336  and  _337
REMARK  133  A    between atoms: _343  and  _345
REMARK  134  A    between atoms: _345  and  _346
REMARK  135  A    between atoms: _348  and  _350
REMARK  136  A    between atoms: _350  and  _351
REMARK  137  A    between atoms: _350  and  _353
REMARK  138  A    between atoms: _353  and  _354
REMARK  139  A    between atoms: _357  and  _359
REMARK  140  A    between atoms: _359  and  _360
REMARK  141  A    between atoms: _363  and  _365
REMARK  142  A    between atoms: _365  and  _366
REMARK  143  A    between atoms: _365  and  _368
REMARK  144  A    between atoms: _368  and  _369
REMARK  145  A    between atoms: _379  and  _381
REMARK  146  A    between atoms: _381  and  _382
REMARK  147  A    between atoms: _381  and  _384
REMARK  148  A    between atoms: _384  and  _385
REMARK  149  A    between atoms: _387  and  _389
REMARK  150  A    between atoms: _389  and  _390
REMARK  151  A    between atoms: _389  and  _392
REMARK  152  A    between atoms: _392  and  _393
REMARK  153  A    between atoms: _398  and  _399
REMARK  154  A    between atoms: _401  and  _403
REMARK  155  A    between atoms: _403  and  _404
REMARK  156  A    between atoms: _403  and  _406
REMARK  157  A    between atoms: _406  and  _407
REMARK  158  A    between atoms: _412  and  _413
REMARK  159  A    between atoms: _415  and  _417
REMARK  160  A    between atoms: _417  and  _418
REMARK  161  A    between atoms: _417  and  _420
REMARK  162  A    between atoms: _420  and  _421
REMARK  163  A    between atoms: _424  and  _426
REMARK  164  A    between atoms: _426  and  _427
REMARK  165  A    between atoms: _429  and  _431
REMARK  166  A    between atoms: _431  and  _432
REMARK  167  A    between atoms: _431  and  _434
REMARK  168  A    between atoms: _434  and  _435
REMARK  169  A    between atoms: _440  and  _441
REMARK  170  A    between atoms: _443  and  _445
REMARK  171  A    between atoms: _445  and  _446
REMARK  172  A    between atoms: _445  and  _448
REMARK  173  A    between atoms: _448  and  _449
REMARK  174  A    between atoms: _452  and  _454
REMARK  175  A    between atoms: _454  and  _455
REMARK  176  A    between atoms: _454  and  _457
REMARK  177  A    between atoms: _457  and  _458
REMARK  178  A    between atoms: _458  and  _459
REMARK  179  A    between atoms: _459  and  _460
REMARK  180  A    between atoms: _469  and  _471
REMARK  181  A    between atoms: _471  and  _472
REMARK  182  A    between atoms: _471  and  _474
REMARK  183  A    between atoms: _474  and  _475
REMARK  184  A    between atoms: _478  and  _480
REMARK  185  A    between atoms: _480  and  _481
REMARK  186  A    between atoms: _480  and  _483
REMARK  187  A    between atoms: _483  and  _484
REMARK  188  A    between atoms: _487  and  _489
REMARK  189  A    between atoms: _489  and  _490
REMARK  190  A    between atoms: _489  and  _492
REMARK  191  A    between atoms: _492  and  _493
REMARK  192  A    between atoms: _493  and  _494
REMARK  193  A    between atoms: _494  and  _495
REMARK  194  A    between atoms: _504  and  _506
REMARK  195  A    between atoms: _506  and  _507
REMARK  196  A    between atoms: _506  and  _509
REMARK  197  A    between atoms: _509  and  _510
REMARK  198  A    between atoms: _513  and  _515
REMARK  199  A    between atoms: _515  and  _516
REMARK  200  A    between atoms: _515  and  _518
REMARK  201  A    between atoms: _518  and  _519
REMARK  202  A    between atoms: _519  and  _520
REMARK  203  A    between atoms: _520  and  _521
REMARK  204  A    between atoms: _521  and  _522
REMARK  205  A    between atoms: _526  and  _528
REMARK  206  A    between atoms: _528  and  _529
REMARK  207  A    between atoms: _528  and  _531
REMARK  208  A    between atoms: _531  and  _532
REMARK  209  A    between atoms: _532  and  _533
REMARK  210  A    between atoms: _538  and  _540
REMARK  211  A    between atoms: _540  and  _541
REMARK  212  A    between atoms: _540  and  _543
REMARK  213  A    between atoms: _543  and  _544
REMARK  214  A    between atoms: _549  and  _551
REMARK  215  A    between atoms: _551  and  _552
REMARK  216  A    between atoms: _555  and  _557
REMARK  217  A    between atoms: _557  and  _558
REMARK  218  A    between atoms: _557  and  _560
REMARK  219  A    between atoms: _560  and  _561
REMARK  220  A    between atoms: _564  and  _566
REMARK  221  A    between atoms: _566  and  _567
REMARK  222  A    between atoms: _566  and  _569
REMARK  223  A    between atoms: _569  and  _570
REMARK  224  A    between atoms: _570  and  _571
REMARK  225  A    between atoms: _571  and  _572
REMARK  226  A    between atoms: _581  and  _583
REMARK  227  A    between atoms: _583  and  _584
REMARK  228  A    between atoms: _583  and  _586
REMARK  229  A    between atoms: _589  and  _591
REMARK  230  A    between atoms: _591  and  _592
REMARK  231  A    between atoms: _591  and  _594
REMARK  232  A    between atoms: _594  and  _595
REMARK  233  A    between atoms: _600  and  _601
REMARK  234  A    between atoms: _603  and  _605
REMARK  235  A    between atoms: _605  and  _606
REMARK  236  A    between atoms: _605  and  _608
REMARK  237  A    between atoms: _608  and  _609
REMARK  238  A    between atoms: _611  and  _613
REMARK  239  A    between atoms: _613  and  _614
REMARK  240  A    between atoms: _613  and  _616
REMARK  241  A    between atoms: _616  and  _617
REMARK  242  A    between atoms: _622  and  _624
REMARK  243  A    between atoms: _624  and  _625
REMARK  244  A    between atoms: _624  and  _627
REMARK  245  A    between atoms: _627  and  _628
REMARK  246  A    between atoms: _628  and  _629
REMARK  247  A    between atoms: _632  and  _634
REMARK  248  A    between atoms: _634  and  _635
REMARK  249  A    between atoms: _634  and  _637
REMARK  250  A    between atoms: _637  and  _638
REMARK  251  A    between atoms: _643  and  _644
REMARK  252  A    between atoms: _646  and  _648
REMARK  253  A    between atoms: _648  and  _649
REMARK  254  A    between atoms: _652  and  _654
REMARK  255  A    between atoms: _654  and  _655
REMARK  256  A    between atoms: _654  and  _657
REMARK  257  A    between atoms: _657  and  _658
REMARK  258  A    between atoms: _662  and  _663
REMARK  259  A    between atoms: _668  and  _670
REMARK  260  A    between atoms: _670  and  _671
REMARK  261  A    between atoms: _670  and  _673
REMARK  262  A    between atoms: _673  and  _674
REMARK  263  A    between atoms: _677  and  _679
REMARK  264  A    between atoms: _679  and  _680
REMARK  265  A    between atoms: _679  and  _682
REMARK  266  A    between atoms: _682  and  _683
REMARK  267  A    between atoms: _683  and  _684
REMARK  268  A    between atoms: _689  and  _691
REMARK  269  A    between atoms: _691  and  _692
REMARK  270  A    between atoms: _691  and  _694
REMARK  271  A    between atoms: _694  and  _695
REMARK  272  A    between atoms: _698  and  _700
REMARK  273  A    between atoms: _700  and  _701
REMARK  274  A    between atoms: _700  and  _703
REMARK  275  A    between atoms: _703  and  _704
REMARK  276  A    between atoms: _707  and  _709
REMARK  277  A    between atoms: _709  and  _710
REMARK  278  A    between atoms: _709  and  _712
REMARK  279  A    between atoms: _712  and  _713
REMARK                            x       y       z     vdW  Elec       q    Type
REMARK                         _______ _______ _______ _____ _____    ______ ____
ROOT
ATOM      1  O   HOH     1     -51.936   2.999  65.827  0.00  0.00    +0.000 OA
ENDROOT
TORSDOF 0
REMARK  Name = ../refined-set-2016/4loh/4loh_pocket.pdb
REMARK  279 active torsions:
REMARK  status: ('A' for Active; 'I' for Inactive)
REMARK    1  A    between atoms: _1  and  _3
REMARK    2  A    between atoms: _3  and  _4
REMARK    3  A    between atoms: _6  and  _8
REMARK    4  A    between atoms: _8  and  _9
REMARK    5  A    between atoms: _8  and  _11
REMARK    6  A    between atoms: _11  and  _12
REMARK    7  A    between atoms: _15  and  _17
REMARK    8  A    between atoms: _17  and  _18
REMARK    9  A    between atoms: _21  and  _23
REMARK   10  A    between atoms: _23  and  _24
REMARK   11  A    between atoms: _23  and  _26
REMARK   12  A    between atoms: _26  and  _27
REMARK   13  A    between atoms: _37  and  _39
REMARK   14  A    between atoms: _39  and  _40
REMARK   15  A    between atoms: _39  and  _42
REMARK   16  A    between atoms: _42  and  _43
REMARK   17  A    between atoms: _45  and  _47
REMARK   18  A    between atoms: _47  and  _48
REMARK   19  A    between atoms: _47  and  _50
REMARK   20  A    between atoms: _50  and  _51
REMARK   21  A    between atoms: _56  and  _57
REMARK   22  A    between atoms: _59  and  _61
REMARK   23  A    between atoms: _61  and  _62
REMARK   24  A    between atoms: _61  and  _64
REMARK   25  A    between atoms: _64  and  _65
REMARK   26  A    between atoms: _70  and  _71
REMARK   27  A    between atoms: _73  and  _75
REMARK   28  A    between atoms: _75  and  _76
REMARK   29  A    between atoms: _75  and  _78
REMARK   30  A    between atoms: _78  and  _79
REMARK   31  A    between atoms: _82  and  _84
REMARK   32  A    between atoms: _84  and  _85
REMARK   33  A    between atoms: _87  and  _89
REMARK   34  A    between atoms: _89  and  _90
REMARK   35  A    between atoms: _89  and  _92
REMARK   36  A    between atoms: _92  and  _93
REMARK   37  A    between atoms: _98  and  _99
REMARK   38  A    between atoms: _101  and  _103
REMARK   39  A    between atoms: _103  and  _104
REMARK   40  A    between atoms: _103  and  _106
REMARK   41  A    between atoms: _106  and  _107
REMARK   42  A    between atoms: _110  and  _112
REMARK   43  A    between atoms: _112  and  _113
REMARK   44  A    between atoms: _112  and  _115
REMARK   45  A    between atoms: _115  and  _116
REMARK   46  A    between atoms: _116  and  _117
REMARK   47  A    between atoms: _117  and  _118
REMARK   48  A    between atoms: _127  and  _129
REMARK   49  A    between atoms: _129  and  _130
REMARK   50  A    between atoms: _129  and  _132
REMARK   51  A    between atoms: _132  and  _133
REMARK   52  A    between atoms: _136  and  _138
REMARK   53  A    between atoms: _138  and  _139
REMARK   54  A    between atoms: _138  and  _141
REMARK   55  A    between atoms: _141  and  _142
REMARK   56  A    between atoms: _145  and  _147
REMARK   57  A    between atoms: _147  and  _148
REMARK   58  A    between atoms: _147  and  _150
REMARK   59  A    between atoms: _150  and  _151
REMARK   60  A    between atoms: _151  and  _152
REMARK   61  A    between atoms: _157  and  _159
REMARK   62  A    between atoms: _159  and  _160
REMARK   63  A    between atoms: _159  and  _162
REMARK   64  A    between atoms: _162  and  _163
REMARK   65  A    between atoms: _168  and  _170
REMARK   66  A    between atoms: _170  and  _171
REMARK   67  A    between atoms: _174  and  _176
REMARK   68  A    between atoms: _176  and  _177
REMARK   69  A    between atoms: _179  and  _181
REMARK   70  A    between atoms: _181  and  _182
REMARK   71  A    between atoms: _181  and  _184
REMARK   72  A    between atoms: _184  and  _185
REMARK   73  A    between atoms: _188  and  _190
REMARK   74  A    between atoms: _190  and  _191
REMARK   75  A    between atoms: _190  and  _193
REMARK   76  A    between atoms: _193  and  _194
REMARK   77  A    between atoms: _194  and  _195
REMARK   78  A    between atoms: _195  and  _196
REMARK   79  A    between atoms: _205  and  _207
REMARK   80  A    between atoms: _207  and  _208
REMARK   81  A    between atoms: _207  and  _210
REMARK   82  A    between atoms: _213  and  _215
REMARK   83  A    between atoms: _215  and  _216
REMARK   84  A    between atoms: _215  and  _218
REMARK   85  A    between atoms: _218  and  _219
REMARK   86  A    between atoms: _224  and  _225
REMARK   87  A    between atoms: _227  and  _229
REMARK   88  A    between atoms: _229  and  _230
REMARK   89  A    between atoms: _229  and  _232
REMARK   90  A    between atoms: _232  and  _233
REMARK   91  A    between atoms: _235  and  _237
REMARK   92  A    between atoms: _237  and  _238
REMARK   93  A    between atoms: _237  and  _240
REMARK   94  A    between atoms: _240  and  _241
REMARK   95  A    between atoms: _246  and  _248
REMARK   96  A    between atoms: _248  and  _249
REMARK   97  A    between atoms: _248  and  _251
REMARK   98  A    between atoms: _251  and  _252
REMARK   99  A    between atoms: _252  and  _253
REMARK  100  A    between atoms: _256  and  _258
REMARK  101  A    between atoms: _258  and  _259
REMARK  102  A    between atoms: _258  and  _261
REMARK  103  A    between atoms: _261  and  _262
REMARK  104  A    between atoms: _267  and  _268
REMARK  105  A    between atoms: _270  and  _272
REMARK  106  A    between atoms: _272  and  _273
REMARK  107  A    between atoms: _276  and  _278
REMARK  108  A    between atoms: _278  and  _279
REMARK  109  A    between atoms: _278  and  _281
REMARK  110  A    between atoms: _281  and  _282
REMARK  111  A    between atoms: _286  and  _287
REMARK  112  A    between atoms: _292  and  _294
REMARK  113  A    between atoms: _294  and  _295
REMARK  114  A    between atoms: _294  and  _297
REMARK  115  A    between atoms: _297  and  _298
REMARK  116  A    between atoms: _301  and  _303
REMARK  117  A    between atoms: _303  and  _304
REMARK  118  A    between atoms: _303  and  _306
REMARK  119  A    between atoms: _306  and  _307
REMARK  120  A    between atoms: _307  and  _308
REMARK  121  A    between atoms: _313  and  _315
REMARK  122  A    between atoms: _315  and  _316
REMARK  123  A    between atoms: _315  and  _318
REMARK  124  A    between atoms: _318  and  _319
REMARK  125  A    between atoms: _322  and  _324
REMARK  126  A    between atoms: _324  and  _325
REMARK  127  A    between atoms: _324  and  _327
REMARK  128  A    between atoms: _327  and  _328
REMARK  129  A    between atoms: _331  and  _333
REMARK  130  A    between atoms: _333  and  _334
REMARK  131  A    between atoms: _333  and  _336
REMARK  132  A    between atoms: _336  and  _337
REMARK  133  A    between atoms: _343  and  _345
REMARK  134  A    between atoms: _345  and  _346
REMARK  135  A    between atoms: _348  and  _350
REMARK  136  A    between atoms: _350  and  _351
REMARK  137  A    between atoms: _350  and  _353
REMARK  138  A    between atoms: _353  and  _354
REMARK  139  A    between atoms: _357  and  _359
REMARK  140  A    between atoms: _359  and  _360
REMARK  141  A    between atoms: _363  and  _365
REMARK  142  A    between atoms: _365  and  _366
REMARK  143  A    between atoms: _365  and  _368
REMARK  144  A    between atoms: _368  and  _369
REMARK  145  A    between atoms: _379  and  _381
REMARK  146  A    between atoms: _381  and  _382
REMARK  147  A    between atoms: _381  and  _384
REMARK  148  A    between atoms: _384  and  _385
REMARK  149  A    between atoms: _387  and  _389
REMARK  150  A    between atoms: _389  and  _390
REMARK  151  A    between atoms: _389  and  _392
REMARK  152  A    between atoms: _392  and  _393
REMARK  153  A    between atoms: _398  and  _399
REMARK  154  A    between atoms: _401  and  _403
REMARK  155  A    between atoms: _403  and  _404
REMARK  156  A    between atoms: _403  and  _406
REMARK  157  A    between atoms: _406  and  _407
REMARK  158  A    between atoms: _412  and  _413
REMARK  159  A    between atoms: _415  and  _417
REMARK  160  A    between atoms: _417  and  _418
REMARK  161  A    between atoms: _417  and  _420
REMARK  162  A    between atoms: _420  and  _421
REMARK  163  A    between atoms: _424  and  _426
REMARK  164  A    between atoms: _426  and  _427
REMARK  165  A    between atoms: _429  and  _431
REMARK  166  A    between atoms: _431  and  _432
REMARK  167  A    between atoms: _431  and  _434
REMARK  168  A    between atoms: _434  and  _435
REMARK  169  A    between atoms: _440  and  _441
REMARK  170  A    between atoms: _443  and  _445
REMARK  171  A    between atoms: _445  and  _446
REMARK  172  A    between atoms: _445  and  _448
REMARK  173  A    between atoms: _448  and  _449
REMARK  174  A    between atoms: _452  and  _454
REMARK  175  A    between atoms: _454  and  _455
REMARK  176  A    between atoms: _454  and  _457
REMARK  177  A    between atoms: _457  and  _458
REMARK  178  A    between atoms: _458  and  _459
REMARK  179  A    between atoms: _459  and  _460
REMARK  180  A    between atoms: _469  and  _471
REMARK  181  A    between atoms: _471  and  _472
REMARK  182  A    between atoms: _471  and  _474
REMARK  183  A    between atoms: _474  and  _475
REMARK  184  A    between atoms: _478  and  _480
REMARK  185  A    between atoms: _480  and  _481
REMARK  186  A    between atoms: _480  and  _483
REMARK  187  A    between atoms: _483  and  _484
REMARK  188  A    between atoms: _487  and  _489
REMARK  189  A    between atoms: _489  and  _490
REMARK  190  A    between atoms: _489  and  _492
REMARK  191  A    between atoms: _492  and  _493
REMARK  192  A    between atoms: _493  and  _494
REMARK  193  A    between atoms: _494  and  _495
REMARK  194  A    between atoms: _504  and  _506
REMARK  195  A    between atoms: _506  and  _507
REMARK  196  A    between atoms: _506  and  _509
REMARK  197  A    between atoms: _509  and  _510
REMARK  198  A    between atoms: _513  and  _515
REMARK  199  A    between atoms: _515  and  _516
REMARK  200  A    between atoms: _515  and  _518
REMARK  201  A    between atoms: _518  and  _519
REMARK  202  A    between atoms: _519  and  _520
REMARK  203  A    between atoms: _520  and  _521
REMARK  204  A    between atoms: _521  and  _522
REMARK  205  A    between atoms: _526  and  _528
REMARK  206  A    between atoms: _528  and  _529
REMARK  207  A    between atoms: _528  and  _531
REMARK  208  A    between atoms: _531  and  _532
REMARK  209  A    between atoms: _532  and  _533
REMARK  210  A    between atoms: _538  and  _540
REMARK  211  A    between atoms: _540  and  _541
REMARK  212  A    between atoms: _540  and  _543
REMARK  213  A    between atoms: _543  and  _544
REMARK  214  A    between atoms: _549  and  _551
REMARK  215  A    between atoms: _551  and  _552
REMARK  216  A    between atoms: _555  and  _557
REMARK  217  A    between atoms: _557  and  _558
REMARK  218  A    between atoms: _557  and  _560
REMARK  219  A    between atoms: _560  and  _561
REMARK  220  A    between atoms: _564  and  _566
REMARK  221  A    between atoms: _566  and  _567
REMARK  222  A    between atoms: _566  and  _569
REMARK  223  A    between atoms: _569  and  _570
REMARK  224  A    between atoms: _570  and  _571
REMARK  225  A    between atoms: _571  and  _572
REMARK  226  A    between atoms: _581  and  _583
REMARK  227  A    between atoms: _583  and  _584
REMARK  228  A    between atoms: _583  and  _586
REMARK  229  A    between atoms: _589  and  _591
REMARK  230  A    between atoms: _591  and  _592
REMARK  231  A    between atoms: _591  and  _594
REMARK  232  A    between atoms: _594  and  _595
REMARK  233  A    between atoms: _600  and  _601
REMARK  234  A    between atoms: _603  and  _605
REMARK  235  A    between atoms: _605  and  _606
REMARK  236  A    between atoms: _605  and  _608
REMARK  237  A    between atoms: _608  and  _609
REMARK  238  A    between atoms: _611  and  _613
REMARK  239  A    between atoms: _613  and  _614
REMARK  240  A    between atoms: _613  and  _616
REMARK  241  A    between atoms: _616  and  _617
REMARK  242  A    between atoms: _622  and  _624
REMARK  243  A    between atoms: _624  and  _625
REMARK  244  A    between atoms: _624  and  _627
REMARK  245  A    between atoms: _627  and  _628
REMARK  246  A    between atoms: _628  and  _629
REMARK  247  A    between atoms: _632  and  _634
REMARK  248  A    between atoms: _634  and  _635
REMARK  249  A    between atoms: _634  and  _637
REMARK  250  A    between atoms: _637  and  _638
REMARK  251  A    between atoms: _643  and  _644
REMARK  252  A    between atoms: _646  and  _648
REMARK  253  A    between atoms: _648  and  _649
REMARK  254  A    between atoms: _652  and  _654
REMARK  255  A    between atoms: _654  and  _655
REMARK  256  A    between atoms: _654  and  _657
REMARK  257  A    between atoms: _657  and  _658
REMARK  258  A    between atoms: _662  and  _663
REMARK  259  A    between atoms: _668  and  _670
REMARK  260  A    between atoms: _670  and  _671
REMARK  261  A    between atoms: _670  and  _673
REMARK  262  A    between atoms: _673  and  _674
REMARK  263  A    between atoms: _677  and  _679
REMARK  264  A    between atoms: _679  and  _680
REMARK  265  A    between atoms: _679  and  _682
REMARK  266  A    between atoms: _682  and  _683
REMARK  267  A    between atoms: _683  and  _684
REMARK  268  A    between atoms: _689  and  _691
REMARK  269  A    between atoms: _691  and  _692
REMARK  270  A    between atoms: _691  and  _694
REMARK  271  A    between atoms: _694  and  _695
REMARK  272  A    between atoms: _698  and  _700
REMARK  273  A    between atoms: _700  and  _701
REMARK  274  A    between atoms: _700  and  _703
REMARK  275  A    between atoms: _703  and  _704
REMARK  276  A    between atoms: _707  and  _709
REMARK  277  A    between atoms: _709  and  _710
REMARK  278  A    between atoms: _709  and  _712
REMARK  279  A    between atoms: _712  and  _713
REMARK                            x       y       z     vdW  Elec       q    Type
REMARK                         _______ _______ _______ _____ _____    ______ ____
ROOT
ATOM      1  O   HOH     1     -50.826   5.241  70.354  0.00  0.00    +0.000 OA
ENDROOT
TORSDOF 0
REMARK  Name = ../refined-set-2016/4loh/4loh_pocket.pdb
REMARK  279 active torsions:
REMARK  status: ('A' for Active; 'I' for Inactive)
REMARK    1  A    between atoms: _1  and  _3
REMARK    2  A    between atoms: _3  and  _4
REMARK    3  A    between atoms: _6  and  _8
REMARK    4  A    between atoms: _8  and  _9
REMARK    5  A    between atoms: _8  and  _11
REMARK    6  A    between atoms: _11  and  _12
REMARK    7  A    between atoms: _15  and  _17
REMARK    8  A    between atoms: _17  and  _18
REMARK    9  A    between atoms: _21  and  _23
REMARK   10  A    between atoms: _23  and  _24
REMARK   11  A    between atoms: _23  and  _26
REMARK   12  A    between atoms: _26  and  _27
REMARK   13  A    between atoms: _37  and  _39
REMARK   14  A    between atoms: _39  and  _40
REMARK   15  A    between atoms: _39  and  _42
REMARK   16  A    between atoms: _42  and  _43
REMARK   17  A    between atoms: _45  and  _47
REMARK   18  A    between atoms: _47  and  _48
REMARK   19  A    between atoms: _47  and  _50
REMARK   20  A    between atoms: _50  and  _51
REMARK   21  A    between atoms: _56  and  _57
REMARK   22  A    between atoms: _59  and  _61
REMARK   23  A    between atoms: _61  and  _62
REMARK   24  A    between atoms: _61  and  _64
REMARK   25  A    between atoms: _64  and  _65
REMARK   26  A    between atoms: _70  and  _71
REMARK   27  A    between atoms: _73  and  _75
REMARK   28  A    between atoms: _75  and  _76
REMARK   29  A    between atoms: _75  and  _78
REMARK   30  A    between atoms: _78  and  _79
REMARK   31  A    between atoms: _82  and  _84
REMARK   32  A    between atoms: _84  and  _85
REMARK   33  A    between atoms: _87  and  _89
REMARK   34  A    between atoms: _89  and  _90
REMARK   35  A    between atoms: _89  and  _92
REMARK   36  A    between atoms: _92  and  _93
REMARK   37  A    between atoms: _98  and  _99
REMARK   38  A    between atoms: _101  and  _103
REMARK   39  A    between atoms: _103  and  _104
REMARK   40  A    between atoms: _103  and  _106
REMARK   41  A    between atoms: _106  and  _107
REMARK   42  A    between atoms: _110  and  _112
REMARK   43  A    between atoms: _112  and  _113
REMARK   44  A    between atoms: _112  and  _115
REMARK   45  A    between atoms: _115  and  _116
REMARK   46  A    between atoms: _116  and  _117
REMARK   47  A    between atoms: _117  and  _118
REMARK   48  A    between atoms: _127  and  _129
REMARK   49  A    between atoms: _129  and  _130
REMARK   50  A    between atoms: _129  and  _132
REMARK   51  A    between atoms: _132  and  _133
REMARK   52  A    between atoms: _136  and  _138
REMARK   53  A    between atoms: _138  and  _139
REMARK   54  A    between atoms: _138  and  _141
REMARK   55  A    between atoms: _141  and  _142
REMARK   56  A    between atoms: _145  and  _147
REMARK   57  A    between atoms: _147  and  _148
REMARK   58  A    between atoms: _147  and  _150
REMARK   59  A    between atoms: _150  and  _151
REMARK   60  A    between atoms: _151  and  _152
REMARK   61  A    between atoms: _157  and  _159
REMARK   62  A    between atoms: _159  and  _160
REMARK   63  A    between atoms: _159  and  _162
REMARK   64  A    between atoms: _162  and  _163
REMARK   65  A    between atoms: _168  and  _170
REMARK   66  A    between atoms: _170  and  _171
REMARK   67  A    between atoms: _174  and  _176
REMARK   68  A    between atoms: _176  and  _177
REMARK   69  A    between atoms: _179  and  _181
REMARK   70  A    between atoms: _181  and  _182
REMARK   71  A    between atoms: _181  and  _184
REMARK   72  A    between atoms: _184  and  _185
REMARK   73  A    between atoms: _188  and  _190
REMARK   74  A    between atoms: _190  and  _191
REMARK   75  A    between atoms: _190  and  _193
REMARK   76  A    between atoms: _193  and  _194
REMARK   77  A    between atoms: _194  and  _195
REMARK   78  A    between atoms: _195  and  _196
REMARK   79  A    between atoms: _205  and  _207
REMARK   80  A    between atoms: _207  and  _208
REMARK   81  A    between atoms: _207  and  _210
REMARK   82  A    between atoms: _213  and  _215
REMARK   83  A    between atoms: _215  and  _216
REMARK   84  A    between atoms: _215  and  _218
REMARK   85  A    between atoms: _218  and  _219
REMARK   86  A    between atoms: _224  and  _225
REMARK   87  A    between atoms: _227  and  _229
REMARK   88  A    between atoms: _229  and  _230
REMARK   89  A    between atoms: _229  and  _232
REMARK   90  A    between atoms: _232  and  _233
REMARK   91  A    between atoms: _235  and  _237
REMARK   92  A    between atoms: _237  and  _238
REMARK   93  A    between atoms: _237  and  _240
REMARK   94  A    between atoms: _240  and  _241
REMARK   95  A    between atoms: _246  and  _248
REMARK   96  A    between atoms: _248  and  _249
REMARK   97  A    between atoms: _248  and  _251
REMARK   98  A    between atoms: _251  and  _252
REMARK   99  A    between atoms: _252  and  _253
REMARK  100  A    between atoms: _256  and  _258
REMARK  101  A    between atoms: _258  and  _259
REMARK  102  A    between atoms: _258  and  _261
REMARK  103  A    between atoms: _261  and  _262
REMARK  104  A    between atoms: _267  and  _268
REMARK  105  A    between atoms: _270  and  _272
REMARK  106  A    between atoms: _272  and  _273
REMARK  107  A    between atoms: _276  and  _278
REMARK  108  A    between atoms: _278  and  _279
REMARK  109  A    between atoms: _278  and  _281
REMARK  110  A    between atoms: _281  and  _282
REMARK  111  A    between atoms: _286  and  _287
REMARK  112  A    between atoms: _292  and  _294
REMARK  113  A    between atoms: _294  and  _295
REMARK  114  A    between atoms: _294  and  _297
REMARK  115  A    between atoms: _297  and  _298
REMARK  116  A    between atoms: _301  and  _303
REMARK  117  A    between atoms: _303  and  _304
REMARK  118  A    between atoms: _303  and  _306
REMARK  119  A    between atoms: _306  and  _307
REMARK  120  A    between atoms: _307  and  _308
REMARK  121  A    between atoms: _313  and  _315
REMARK  122  A    between atoms: _315  and  _316
REMARK  123  A    between atoms: _315  and  _318
REMARK  124  A    between atoms: _318  and  _319
REMARK  125  A    between atoms: _322  and  _324
REMARK  126  A    between atoms: _324  and  _325
REMARK  127  A    between atoms: _324  and  _327
REMARK  128  A    between atoms: _327  and  _328
REMARK  129  A    between atoms: _331  and  _333
REMARK  130  A    between atoms: _333  and  _334
REMARK  131  A    between atoms: _333  and  _336
REMARK  132  A    between atoms: _336  and  _337
REMARK  133  A    between atoms: _343  and  _345
REMARK  134  A    between atoms: _345  and  _346
REMARK  135  A    between atoms: _348  and  _350
REMARK  136  A    between atoms: _350  and  _351
REMARK  137  A    between atoms: _350  and  _353
REMARK  138  A    between atoms: _353  and  _354
REMARK  139  A    between atoms: _357  and  _359
REMARK  140  A    between atoms: _359  and  _360
REMARK  141  A    between atoms: _363  and  _365
REMARK  142  A    between atoms: _365  and  _366
REMARK  143  A    between atoms: _365  and  _368
REMARK  144  A    between atoms: _368  and  _369
REMARK  145  A    between atoms: _379  and  _381
REMARK  146  A    between atoms: _381  and  _382
REMARK  147  A    between atoms: _381  and  _384
REMARK  148  A    between atoms: _384  and  _385
REMARK  149  A    between atoms: _387  and  _389
REMARK  150  A    between atoms: _389  and  _390
REMARK  151  A    between atoms: _389  and  _392
REMARK  152  A    between atoms: _392  and  _393
REMARK  153  A    between atoms: _398  and  _399
REMARK  154  A    between atoms: _401  and  _403
REMARK  155  A    between atoms: _403  and  _404
REMARK  156  A    between atoms: _403  and  _406
REMARK  157  A    between atoms: _406  and  _407
REMARK  158  A    between atoms: _412  and  _413
REMARK  159  A    between atoms: _415  and  _417
REMARK  160  A    between atoms: _417  and  _418
REMARK  161  A    between atoms: _417  and  _420
REMARK  162  A    between atoms: _420  and  _421
REMARK  163  A    between atoms: _424  and  _426
REMARK  164  A    between atoms: _426  and  _427
REMARK  165  A    between atoms: _429  and  _431
REMARK  166  A    between atoms: _431  and  _432
REMARK  167  A    between atoms: _431  and  _434
REMARK  168  A    between atoms: _434  and  _435
REMARK  169  A    between atoms: _440  and  _441
REMARK  170  A    between atoms: _443  and  _445
REMARK  171  A    between atoms: _445  and  _446
REMARK  172  A    between atoms: _445  and  _448
REMARK  173  A    between atoms: _448  and  _449
REMARK  174  A    between atoms: _452  and  _454
REMARK  175  A    between atoms: _454  and  _455
REMARK  176  A    between atoms: _454  and  _457
REMARK  177  A    between atoms: _457  and  _458
REMARK  178  A    between atoms: _458  and  _459
REMARK  179  A    between atoms: _459  and  _460
REMARK  180  A    between atoms: _469  and  _471
REMARK  181  A    between atoms: _471  and  _472
REMARK  182  A    between atoms: _471  and  _474
REMARK  183  A    between atoms: _474  and  _475
REMARK  184  A    between atoms: _478  and  _480
REMARK  185  A    between atoms: _480  and  _481
REMARK  186  A    between atoms: _480  and  _483
REMARK  187  A    between atoms: _483  and  _484
REMARK  188  A    between atoms: _487  and  _489
REMARK  189  A    between atoms: _489  and  _490
REMARK  190  A    between atoms: _489  and  _492
REMARK  191  A    between atoms: _492  and  _493
REMARK  192  A    between atoms: _493  and  _494
REMARK  193  A    between atoms: _494  and  _495
REMARK  194  A    between atoms: _504  and  _506
REMARK  195  A    between atoms: _506  and  _507
REMARK  196  A    between atoms: _506  and  _509
REMARK  197  A    between atoms: _509  and  _510
REMARK  198  A    between atoms: _513  and  _515
REMARK  199  A    between atoms: _515  and  _516
REMARK  200  A    between atoms: _515  and  _518
REMARK  201  A    between atoms: _518  and  _519
REMARK  202  A    between atoms: _519  and  _520
REMARK  203  A    between atoms: _520  and  _521
REMARK  204  A    between atoms: _521  and  _522
REMARK  205  A    between atoms: _526  and  _528
REMARK  206  A    between atoms: _528  and  _529
REMARK  207  A    between atoms: _528  and  _531
REMARK  208  A    between atoms: _531  and  _532
REMARK  209  A    between atoms: _532  and  _533
REMARK  210  A    between atoms: _538  and  _540
REMARK  211  A    between atoms: _540  and  _541
REMARK  212  A    between atoms: _540  and  _543
REMARK  213  A    between atoms: _543  and  _544
REMARK  214  A    between atoms: _549  and  _551
REMARK  215  A    between atoms: _551  and  _552
REMARK  216  A    between atoms: _555  and  _557
REMARK  217  A    between atoms: _557  and  _558
REMARK  218  A    between atoms: _557  and  _560
REMARK  219  A    between atoms: _560  and  _561
REMARK  220  A    between atoms: _564  and  _566
REMARK  221  A    between atoms: _566  and  _567
REMARK  222  A    between atoms: _566  and  _569
REMARK  223  A    between atoms: _569  and  _570
REMARK  224  A    between atoms: _570  and  _571
REMARK  225  A    between atoms: _571  and  _572
REMARK  226  A    between atoms: _581  and  _583
REMARK  227  A    between atoms: _583  and  _584
REMARK  228  A    between atoms: _583  and  _586
REMARK  229  A    between atoms: _589  and  _591
REMARK  230  A    between atoms: _591  and  _592
REMARK  231  A    between atoms: _591  and  _594
REMARK  232  A    between atoms: _594  and  _595
REMARK  233  A    between atoms: _600  and  _601
REMARK  234  A    between atoms: _603  and  _605
REMARK  235  A    between atoms: _605  and  _606
REMARK  236  A    between atoms: _605  and  _608
REMARK  237  A    between atoms: _608  and  _609
REMARK  238  A    between atoms: _611  and  _613
REMARK  239  A    between atoms: _613  and  _614
REMARK  240  A    between atoms: _613  and  _616
REMARK  241  A    between atoms: _616  and  _617
REMARK  242  A    between atoms: _622  and  _624
REMARK  243  A    between atoms: _624  and  _625
REMARK  244  A    between atoms: _624  and  _627
REMARK  245  A    between atoms: _627  and  _628
REMARK  246  A    between atoms: _628  and  _629
REMARK  247  A    between atoms: _632  and  _634
REMARK  248  A    between atoms: _634  and  _635
REMARK  249  A    between atoms: _634  and  _637
REMARK  250  A    between atoms: _637  and  _638
REMARK  251  A    between atoms: _643  and  _644
REMARK  252  A    between atoms: _646  and  _648
REMARK  253  A    between atoms: _648  and  _649
REMARK  254  A    between atoms: _652  and  _654
REMARK  255  A    between atoms: _654  and  _655
REMARK  256  A    between atoms: _654  and  _657
REMARK  257  A    between atoms: _657  and  _658
REMARK  258  A    between atoms: _662  and  _663
REMARK  259  A    between atoms: _668  and  _670
REMARK  260  A    between atoms: _670  and  _671
REMARK  261  A    between atoms: _670  and  _673
REMARK  262  A    between atoms: _673  and  _674
REMARK  263  A    between atoms: _677  and  _679
REMARK  264  A    between atoms: _679  and  _680
REMARK  265  A    between atoms: _679  and  _682
REMARK  266  A    between atoms: _682  and  _683
REMARK  267  A    between atoms: _683  and  _684
REMARK  268  A    between atoms: _689  and  _691
REMARK  269  A    between atoms: _691  and  _692
REMARK  270  A    between atoms: _691  and  _694
REMARK  271  A    between atoms: _694  and  _695
REMARK  272  A    between atoms: _698  and  _700
REMARK  273  A    between atoms: _700  and  _701
REMARK  274  A    between atoms: _700  and  _703
REMARK  275  A    between atoms: _703  and  _704
REMARK  276  A    between atoms: _707  and  _709
REMARK  277  A    between atoms: _709  and  _710
REMARK  278  A    between atoms: _709  and  _712
REMARK  279  A    between atoms: _712  and  _713
REMARK                            x       y       z     vdW  Elec       q    Type
REMARK                         _______ _______ _______ _____ _____    ______ ____
ROOT
ATOM      1  O   HOH     1     -61.508   4.531  76.698  0.00  0.00    +0.000 OA
ENDROOT
TORSDOF 0
