REMARK  Name = ../refined-set-2016/3dx1/3dx1_pocket.pdb
REMARK  129 active torsions:
REMARK  status: ('A' for Active; 'I' for Inactive)
REMARK    1  A    between atoms: _1  and  _3
REMARK    2  A    between atoms: _14  and  _17
REMARK    3  A    between atoms: _17  and  _18
REMARK    4  A    between atoms: _25  and  _26
REMARK    5  A    between atoms: _33  and  _34
REMARK    6  A    between atoms: _39  and  _41
REMARK    7  A    between atoms: _41  and  _42
REMARK    8  A    between atoms: _44  and  _46
REMARK    9  A    between atoms: _46  and  _47
REMARK   10  A    between atoms: _46  and  _49
REMARK   11  A    between atoms: _49  and  _50
REMARK   12  A    between atoms: _60  and  _62
REMARK   13  A    between atoms: _62  and  _63
REMARK   14  A    between atoms: _62  and  _65
REMARK   15  A    between atoms: _65  and  _66
REMARK   16  A    between atoms: _69  and  _71
REMARK   17  A    between atoms: _71  and  _72
REMARK   18  A    between atoms: _71  and  _74
REMARK   19  A    between atoms: _74  and  _75
REMARK   20  A    between atoms: _80  and  _81
REMARK   21  A    between atoms: _83  and  _85
REMARK   22  A    between atoms: _85  and  _86
REMARK   23  A    between atoms: _85  and  _88
REMARK   24  A    between atoms: _88  and  _89
REMARK   25  A    between atoms: _89  and  _90
REMARK   26  A    between atoms: _93  and  _95
REMARK   27  A    between atoms: _95  and  _96
REMARK   28  A    between atoms: _95  and  _98
REMARK   29  A    between atoms: _98  and  _99
REMARK   30  A    between atoms: _99  and  _100
REMARK   31  A    between atoms: _102  and  _104
REMARK   32  A    between atoms: _104  and  _105
REMARK   33  A    between atoms: _104  and  _107
REMARK   34  A    between atoms: _107  and  _108
REMARK   35  A    between atoms: _111  and  _113
REMARK   36  A    between atoms: _113  and  _114
REMARK   37  A    between atoms: _113  and  _116
REMARK   38  A    between atoms: _116  and  _117
REMARK   39  A    between atoms: _117  and  _119
REMARK   40  A    between atoms: _119  and  ZN_358
REMARK   41  A    between atoms: _121  and  _122
REMARK   42  A    between atoms: _127  and  _129
REMARK   43  A    between atoms: _129  and  _130
REMARK   44  A    between atoms: _129  and  _132
REMARK   45  A    between atoms: _132  and  _133
REMARK   46  A    between atoms: _139  and  _141
REMARK   47  A    between atoms: _141  and  _142
REMARK   48  A    between atoms: _141  and  _144
REMARK   49  A    between atoms: _144  and  _145
REMARK   50  A    between atoms: _145  and  _146
REMARK   51  A    between atoms: _146  and  _147
REMARK   52  A    between atoms: _156  and  _158
REMARK   53  A    between atoms: _158  and  _159
REMARK   54  A    between atoms: _158  and  _161
REMARK   55  A    between atoms: _161  and  _162
REMARK   56  A    between atoms: _164  and  _166
REMARK   57  A    between atoms: _166  and  _167
REMARK   58  A    between atoms: _166  and  _169
REMARK   59  A    between atoms: _169  and  _170
REMARK   60  A    between atoms: _175  and  _176
REMARK   61  A    between atoms: _178  and  _180
REMARK   62  A    between atoms: _180  and  _181
REMARK   63  A    between atoms: _180  and  _183
REMARK   64  A    between atoms: _183  and  _184
REMARK   65  A    between atoms: _187  and  _189
REMARK   66  A    between atoms: _189  and  _190
REMARK   67  A    between atoms: _189  and  _192
REMARK   68  A    between atoms: _192  and  _193
REMARK   69  A    between atoms: _196  and  _198
REMARK   70  A    between atoms: _198  and  _199
REMARK   71  A    between atoms: _198  and  _201
REMARK   72  A    between atoms: _201  and  _202
REMARK   73  A    between atoms: _205  and  _207
REMARK   74  A    between atoms: _207  and  _208
REMARK   75  A    between atoms: _207  and  _210
REMARK   76  A    between atoms: _210  and  _211
REMARK   77  A    between atoms: _217  and  _219
REMARK   78  A    between atoms: _219  and  _220
REMARK   79  A    between atoms: _219  and  _222
REMARK   80  A    between atoms: _222  and  _223
REMARK   81  A    between atoms: _228  and  _229
REMARK   82  A    between atoms: _231  and  _233
REMARK   83  A    between atoms: _233  and  _234
REMARK   84  A    between atoms: _233  and  _236
REMARK   85  A    between atoms: _236  and  _237
REMARK   86  A    between atoms: _247  and  _249
REMARK   87  A    between atoms: _249  and  _250
REMARK   88  A    between atoms: _249  and  _252
REMARK   89  A    between atoms: _252  and  _253
REMARK   90  A    between atoms: _258  and  _260
REMARK   91  A    between atoms: _260  and  _261
REMARK   92  A    between atoms: _260  and  _263
REMARK   93  A    between atoms: _263  and  _264
REMARK   94  A    between atoms: _268  and  ZN_358
REMARK   95  A    between atoms: _269  and  _271
REMARK   96  A    between atoms: _271  and  _272
REMARK   97  A    between atoms: _271  and  _274
REMARK   98  A    between atoms: _274  and  _275
REMARK   99  A    between atoms: _278  and  _280
REMARK  100  A    between atoms: _280  and  _281
REMARK  101  A    between atoms: _283  and  _285
REMARK  102  A    between atoms: _285  and  _286
REMARK  103  A    between atoms: _285  and  _288
REMARK  104  A    between atoms: _288  and  _289
REMARK  105  A    between atoms: _292  and  _294
REMARK  106  A    between atoms: _294  and  _295
REMARK  107  A    between atoms: _294  and  _297
REMARK  108  A    between atoms: _297  and  _298
REMARK  109  A    between atoms: _301  and  _303
REMARK  110  A    between atoms: _303  and  _304
REMARK  111  A    between atoms: _307  and  _309
REMARK  112  A    between atoms: _309  and  _310
REMARK  113  A    between atoms: _313  and  _315
REMARK  114  A    between atoms: _315  and  _316
REMARK  115  A    between atoms: _315  and  _318
REMARK  116  A    between atoms: _318  and  _319
REMARK  117  A    between atoms: _324  and  _325
REMARK  118  A    between atoms: _327  and  _329
REMARK  119  A    between atoms: _329  and  _330
REMARK  120  A    between atoms: _329  and  _332
REMARK  121  A    between atoms: _332  and  _333
REMARK  122  A    between atoms: _333  and  _334
REMARK  123  A    between atoms: _334  and  _335
REMARK  124  A    between atoms: _344  and  _346
REMARK  125  A    between atoms: _346  and  _347
REMARK  126  A    between atoms: _349  and  _351
REMARK  127  A    between atoms: _351  and  _352
REMARK  128  A    between atoms: _351  and  _354
REMARK  129  A    between atoms: _354  and  _355
REMARK                            x       y       z     vdW  Elec       q    Type
REMARK                         _______ _______ _______ _____ _____    ______ ____
ROOT
ATOM      1  C   UNK A   1      36.758  61.349  13.495  0.00  0.00    +0.000 C 
ATOM      2  C   UNK A   1      37.460  62.697  13.434  0.00  0.00    +0.000 C 
ATOM      3  O   UNK A   1      36.905  63.677  13.950  0.00  0.00    +0.000 OA
ATOM      4  N   UNK A   2      38.616  62.778  12.801  0.00  0.00    +0.000 N 
ATOM      5  C   UNK A   2      39.423  64.001  12.756  0.00  0.00    +0.000 C 
ATOM      6  C   UNK A   2      39.570  64.451  11.318  0.00  0.00    +0.000 C 
ATOM      7  N   UNK A   3      38.775  65.439  10.937  0.00  0.00    +0.000 N 
ATOM      8  H   UNK A   3      38.063  65.805  11.601  0.00  0.00    +0.000 HD
ATOM      9  C   UNK A   3      38.879  66.028   9.596  0.00  0.00    +0.000 C 
ATOM     10  C   UNK A   3      37.675  66.928   9.319  0.00  0.00    +0.000 C 
ATOM     11  C   UNK A   3      36.361  66.159   9.346  0.00  0.00    +0.000 C 
ATOM     12  O   UNK A   3      35.550  66.455  10.254  0.00  0.00    +0.000 OA
ATOM     13  O   UNK A   3      36.165  65.259   8.505  0.00  0.00    +0.000 OA
ATOM     14 ZN   UNK A   1      34.491  64.094   8.060  0.00  0.00    +0.000 Zn
ATOM     15  N   UNK A   1      35.082  62.677   9.440  0.00  0.00    +0.000 N 
ATOM     16  C   UNK A   1      34.830  62.796  10.793  0.00  0.00    +0.000 A 
ATOM     17  C   UNK A   1      35.353  61.740  11.460  0.00  0.00    +0.000 A 
ATOM     18  N   UNK A   1      35.909  60.913  10.484  0.00  0.00    +0.000 NA
ATOM     19  C   UNK A   1      35.733  61.528   9.299  0.00  0.00    +0.000 A 
ATOM     20  O   UNK A   2      40.368  63.933  10.558  0.00  0.00    +0.000 OA
ATOM     21  H   UNK A   2      38.971  61.933  12.310  0.00  0.00    +0.000 HD
ATOM     22  C   UNK A   1      35.333  61.357  12.926  0.00  0.00    +0.000 C 
ENDROOT
BRANCH   9  23
ATOM     23  C   UNK A   3      40.145  66.848   9.399  0.00  0.00    +0.000 C 
ATOM     24  O   UNK A   3      40.350  67.784  10.137  0.00  0.00    +0.000 OA
ATOM     25  N   GLY A   4      40.963  66.496   8.396  0.00  0.00    +0.000 N 
ATOM     26  CA  GLY A   4      42.140  67.327   8.056  0.00  0.00    +0.000 C 
ATOM     27  CB  GLY A   4      42.985  66.339   7.186  0.00  0.00    +0.000 C 
ATOM     28  CG  GLY A   4      42.463  64.977   7.492  0.00  0.00    +0.000 C 
ATOM     29  CD  GLY A   4      40.975  65.226   7.631  0.00  0.00    +0.000 C 
BRANCH  26  30
ATOM     30  C   GLY A   4      41.733  68.585   7.292  0.00  0.00    +0.000 C 
ATOM     31  N   GLY A   5      41.003  69.442   7.984  0.00  0.00    +0.000 N 
ATOM     32  H   GLY A   5      40.860  69.247   8.995  0.00  0.00    +0.000 HD
ATOM     33  O   GLY A   4      42.072  68.773   6.129  0.00  0.00    +0.000 OA
BRANCH  31  34
ATOM     34  CA  GLY A   5      40.390  70.629   7.439  0.00  0.00    +0.000 C 
BRANCH  34  35
ATOM     35  C   GLY A   5      38.927  70.423   7.241  0.00  0.00    +0.000 C 
ATOM     36  N   TRP A   6      38.115  71.421   7.635  0.00  0.00    +0.000 N 
ATOM     37  H   TRP A   6      38.531  72.208   8.173  0.00  0.00    +0.000 HD
ATOM     38  O   GLY A   5      38.487  69.407   6.703  0.00  0.00    +0.000 OA
BRANCH  36  39
ATOM     39  CA  TRP A   6      36.677  71.463   7.350  0.00  0.00    +0.000 C 
BRANCH  39  40
ATOM     40  C   TRP A   6      36.169  72.841   7.784  0.00  0.00    +0.000 C 
ATOM     41  N   ILE A   7      35.840  73.015   9.066  0.00  0.00    +0.000 N 
ATOM     42  H   ILE A   7      35.858  72.192   9.701  0.00  0.00    +0.000 HD
ATOM     43  O   TRP A   6      36.147  73.753   6.953  0.00  0.00    +0.000 OA
BRANCH  41  44
ATOM     44  CA  ILE A   7      35.455  74.315   9.615  0.00  0.00    +0.000 C 
BRANCH  44  45
ATOM     45  C   ILE A   7      36.667  75.074  10.112  0.00  0.00    +0.000 C 
ATOM     46  O   ILE A   7      36.585  76.294  10.303  0.00  0.00    +0.000 OA
ENDBRANCH  44  45
BRANCH  44  47
ATOM     47  CB  ILE A   7      34.439  74.175  10.807  0.00  0.00    +0.000 C 
ATOM     48  CG2 ILE A   7      34.269  75.443  11.626  0.00  0.00    +0.000 C 
BRANCH  47  49
ATOM     49  CG1 ILE A   7      33.163  73.563  10.254  0.00  0.00    +0.000 C 
ATOM     50  CD1 ILE A   7      32.736  74.106   8.923  0.00  0.00    +0.000 C 
ENDBRANCH  47  49
ENDBRANCH  44  47
ENDBRANCH  41  44
ENDBRANCH  39  40
BRANCH  39  51
ATOM     51  CB  TRP A   6      35.884  70.338   8.038  0.00  0.00    +0.000 C 
BRANCH  51  52
ATOM     52  CG  TRP A   6      34.390  70.455   7.730  0.00  0.00    +0.000 A 
ATOM     53  CD2 TRP A   6      33.296  70.243   8.649  0.00  0.00    +0.000 A 
ATOM     54  CE3 TRP A   6      33.253  69.862  10.019  0.00  0.00    +0.000 A 
ATOM     55  CZ3 TRP A   6      31.997  69.737  10.590  0.00  0.00    +0.000 A 
ATOM     56  CH2 TRP A   6      30.830  69.959   9.870  0.00  0.00    +0.000 A 
ATOM     57  CZ2 TRP A   6      30.856  70.323   8.541  0.00  0.00    +0.000 A 
ATOM     58  CE2 TRP A   6      32.101  70.461   7.925  0.00  0.00    +0.000 A 
ATOM     59  NE1 TRP A   6      32.425  70.807   6.641  0.00  0.00    +0.000 N 
ATOM     60  HE1 TRP A   6      31.754  71.042   5.882  0.00  0.00    +0.000 HD
ATOM     61  CD1 TRP A   6      33.833  70.788   6.531  0.00  0.00    +0.000 A 
ENDBRANCH  51  52
ENDBRANCH  39  51
ENDBRANCH  36  39
ENDBRANCH  34  35
ENDBRANCH  31  34
ENDBRANCH  26  30
ENDBRANCH   9  23
BRANCH  14  62
ATOM     62  N   UNK A   1      35.321  63.440   6.273  0.00  0.00    +0.000 N 
ATOM     63  C   UNK A   1      36.364  62.632   6.028  0.00  0.00    +0.000 A 
ATOM     64  N   UNK A   1      36.564  62.455   4.722  0.00  0.00    +0.000 NA
ATOM     65  C   UNK A   1      35.598  63.189   4.037  0.00  0.00    +0.000 A 
ATOM     66  C   UNK A   1      34.838  63.805   5.024  0.00  0.00    +0.000 A 
BRANCH  65  67
ATOM     67  C   UNK A   1      35.524  63.271   2.561  0.00  0.00    +0.000 C 
BRANCH  67  68
ATOM     68  C   UNK A   1      36.352  64.431   1.957  0.00  0.00    +0.000 C 
BRANCH  68  69
ATOM     69  C   UNK A   1      35.750  65.796   2.316  0.00  0.00    +0.000 C 
ATOM     70  N   UNK A   3      36.574  66.772   2.760  0.00  0.00    +0.000 N 
ATOM     71  H   UNK A   3      37.508  66.511   3.136  0.00  0.00    +0.000 HD
ATOM     72  O   UNK A   1      34.576  66.023   2.042  0.00  0.00    +0.000 OA
BRANCH  70  73
ATOM     73  C   UNK A   3      36.192  68.181   2.727  0.00  0.00    +0.000 C 
BRANCH  73  74
ATOM     74  C   UNK A   3      37.169  69.039   1.890  0.00  0.00    +0.000 C 
ATOM     75  O   UNK A   3      37.033  70.246   1.938  0.00  0.00    +0.000 OA
ATOM     76  N   GLY A   4      38.068  68.392   1.171  0.00  0.00    +0.000 N 
ATOM     77  H   GLY A   4      38.091  67.352   1.183  0.00  0.00    +0.000 HD
BRANCH  76  78
ATOM     78  CA  GLY A   4      39.047  69.145   0.344  0.00  0.00    +0.000 C 
BRANCH  78  79
ATOM     79  C   GLY A   4      38.501  69.199  -1.066  0.00  0.00    +0.000 C 
ATOM     80  O   GLY A   4      37.740  70.126  -1.420  0.00  0.00    +0.000 OA
ENDBRANCH  78  79
ENDBRANCH  76  78
ENDBRANCH  73  74
BRANCH  73  81
ATOM     81  C   UNK A   3      36.051  68.831   4.119  0.00  0.00    +0.000 C 
BRANCH  81  82
ATOM     82  C   UNK A   3      35.038  68.051   4.951  0.00  0.00    +0.000 C 
ATOM     83  O   UNK A   3      35.430  67.417   5.937  0.00  0.00    +0.000 OA
ATOM     84  O   UNK A   3      33.841  68.063   4.569  0.00  0.00    +0.000 OA
ENDBRANCH  81  82
ENDBRANCH  73  81
ENDBRANCH  70  73
ENDBRANCH  68  69
BRANCH  68  85
ATOM     85  N   UNK A   1      37.773  64.259   2.305  0.00  0.00    +0.000 N 
ATOM     86  H   UNK A   1      38.035  63.652   3.108  0.00  0.00    +0.000 HD
ATOM     87  C   UNK A   1      38.738  64.879   1.596  0.00  0.00    +0.000 C 
ATOM     88  O   UNK A   1      38.530  65.636   0.658  0.00  0.00    +0.000 OA
BRANCH  87  89
ATOM     89  C   UNK A   1      40.163  64.576   2.098  0.00  0.00    +0.000 C 
BRANCH  89  90
ATOM     90  N   UNK A   1      41.117  64.632   1.007  0.00  0.00    +0.000 NA
ATOM     91  H   UNK A   1      41.984  65.194   1.120  0.00  0.00    +0.000 HD
ENDBRANCH  89  90
BRANCH  89  92
ATOM     92  C   UNK A   1      40.624  65.606   3.157  0.00  0.00    +0.000 C 
BRANCH  92  93
ATOM     93  C   UNK A   1      39.618  65.843   4.250  0.00  0.00    +0.000 A 
ATOM     94  N   UNK A   1      38.978  64.813   4.928  0.00  0.00    +0.000 NA
ATOM     95  C   UNK A   1      38.162  65.394   5.784  0.00  0.00    +0.000 A 
ATOM     96  N   UNK A   1      38.227  66.721   5.706  0.00  0.00    +0.000 NA
ATOM     97  C   UNK A   1      39.158  67.018   4.724  0.00  0.00    +0.000 A 
ENDBRANCH  92  93
ENDBRANCH  89  92
ENDBRANCH  87  89
ENDBRANCH  68  85
ENDBRANCH  67  68
ENDBRANCH  65  67
ENDBRANCH  14  62
BRANCH   1  98
ATOM     98  N   UNK A   1      36.689  60.947  14.908  0.00  0.00    +0.000 NA
ATOM     99  H   UNK A   1      35.823  61.131  15.454  0.00  0.00    +0.000 HD
ENDBRANCH   1  98
BRANCH   5 100
ATOM    100  C   UNK A   2      40.826  63.786  13.352  0.00  0.00    +0.000 C 
BRANCH 100 101
ATOM    101  C   UNK A   2      40.805  63.705  14.851  0.00  0.00    +0.000 C 
ATOM    102  O   UNK A   2      41.399  64.561  15.550  0.00  0.00    +0.000 OA
ATOM    103  N   UNK A   2      40.108  62.720  15.433  0.00  0.00    +0.000 N 
ATOM    104  H   UNK A   2      40.057  62.662  16.470  0.00  0.00    +0.000 HD
ATOM    105  H   UNK A   2      39.618  62.014  14.848  0.00  0.00    +0.000 HD
ENDBRANCH 100 101
ENDBRANCH   5 100
BRANCH  14 106
ATOM    106  O   UNK A   1      32.665  63.173   7.751  0.00  0.00    +0.000 OA
BRANCH 106 107
ATOM    107  C   UNK A   1      32.129  62.081   7.430  0.00  0.00    +0.000 C 
ATOM    108  O   UNK A   1      30.902  61.912   7.494  0.00  0.00    +0.000 OA
BRANCH 107 109
ATOM    109  C   UNK A   1      33.070  60.927   7.071  0.00  0.00    +0.000 C 
BRANCH 109 110
ATOM    110  C   UNK A   1      32.350  59.796   6.301  0.00  0.00    +0.000 C 
BRANCH 110 111
ATOM    111  C   UNK A   1      32.325  60.162   4.820  0.00  0.00    +0.000 C 
ATOM    112  O   UNK A   1      31.586  61.101   4.543  0.00  0.00    +0.000 OA
ATOM    113  N   UNK A   3      33.011  59.528   3.852  0.00  0.00    +0.000 N 
ATOM    114  C   UNK A   3      33.989  58.435   3.937  0.00  0.00    +0.000 C 
ATOM    115  C   UNK A   3      34.791  58.596   2.644  0.00  0.00    +0.000 C 
ATOM    116  C   UNK A   3      33.755  59.046   1.655  0.00  0.00    +0.000 C 
ATOM    117  C   UNK A   3      32.858  60.001   2.450  0.00  0.00    +0.000 C 
BRANCH 117 118
ATOM    118  C   UNK A   3      31.388  59.924   2.019  0.00  0.00    +0.000 C 
ATOM    119  O   UNK A   3      30.645  59.060   2.457  0.00  0.00    +0.000 OA
ATOM    120  N   GLY A   4      31.000  60.858   1.133  0.00  0.00    +0.000 N 
ATOM    121  H   GLY A   4      31.709  61.425   0.626  0.00  0.00    +0.000 HD
BRANCH 120 122
ATOM    122  CA  GLY A   4      29.561  61.072   0.886  0.00  0.00    +0.000 C 
BRANCH 122 123
ATOM    123  C   GLY A   4      29.062  60.145  -0.261  0.00  0.00    +0.000 C 
ATOM    124  O   GLY A   4      28.841  60.569  -1.389  0.00  0.00    +0.000 OA
ENDBRANCH 122 123
BRANCH 122 125
ATOM    125  CB  GLY A   4      29.273  62.535   0.574  0.00  0.00    +0.000 C 
BRANCH 125 126
ATOM    126  CG  GLY A   4      30.067  63.504   1.455  0.00  0.00    +0.000 A 
ATOM    127  CD2 GLY A   4      30.277  63.300   2.812  0.00  0.00    +0.000 A 
ATOM    128  CE2 GLY A   4      31.056  64.197   3.577  0.00  0.00    +0.000 A 
ATOM    129  CZ  GLY A   4      31.605  65.317   2.944  0.00  0.00    +0.000 A 
ATOM    130  CE1 GLY A   4      31.399  65.540   1.594  0.00  0.00    +0.000 A 
ATOM    131  CD1 GLY A   4      30.628  64.629   0.842  0.00  0.00    +0.000 A 
ENDBRANCH 125 126
ENDBRANCH 122 125
ENDBRANCH 120 122
ENDBRANCH 117 118
ENDBRANCH 110 111
BRANCH 110 132
ATOM    132  N   UNK A   1      32.882  58.484   6.669  0.00  0.00    +0.000 N 
ATOM    133  C   UNK A   1      32.126  57.624   7.379  0.00  0.00    +0.000 C 
ATOM    134  O   UNK A   1      30.948  57.836   7.653  0.00  0.00    +0.000 OA
ATOM    135  H   UNK A   1      33.845  58.215   6.382  0.00  0.00    +0.000 HD
BRANCH 133 136
ATOM    136  C   UNK A   1      32.810  56.346   7.896  0.00  0.00    +0.000 C 
BRANCH 136 137
ATOM    137  N   UNK A   1      34.094  56.054   7.278  0.00  0.00    +0.000 NA
ATOM    138  H   UNK A   1      34.970  56.420   7.702  0.00  0.00    +0.000 HD
ENDBRANCH 136 137
BRANCH 136 139
ATOM    139  C   UNK A   1      32.928  56.390   9.432  0.00  0.00    +0.000 C 
ATOM    140  C   UNK A   1      33.131  54.983   9.986  0.00  0.00    +0.000 C 
BRANCH 139 141
ATOM    141  C   UNK A   1      34.013  57.368   9.903  0.00  0.00    +0.000 C 
ATOM    142  C   UNK A   1      33.881  57.709  11.377  0.00  0.00    +0.000 C 
ENDBRANCH 139 141
ENDBRANCH 136 139
ENDBRANCH 133 136
ENDBRANCH 110 132
ENDBRANCH 109 110
ENDBRANCH 107 109
ENDBRANCH 106 107
ENDBRANCH  14 106
TORSDOF 45
REMARK  Name = ../refined-set-2016/3dx1/3dx1_pocket.pdb
REMARK  129 active torsions:
REMARK  status: ('A' for Active; 'I' for Inactive)
REMARK    1  A    between atoms: _1  and  _3
REMARK    2  A    between atoms: _14  and  _17
REMARK    3  A    between atoms: _17  and  _18
REMARK    4  A    between atoms: _25  and  _26
REMARK    5  A    between atoms: _33  and  _34
REMARK    6  A    between atoms: _39  and  _41
REMARK    7  A    between atoms: _41  and  _42
REMARK    8  A    between atoms: _44  and  _46
REMARK    9  A    between atoms: _46  and  _47
REMARK   10  A    between atoms: _46  and  _49
REMARK   11  A    between atoms: _49  and  _50
REMARK   12  A    between atoms: _60  and  _62
REMARK   13  A    between atoms: _62  and  _63
REMARK   14  A    between atoms: _62  and  _65
REMARK   15  A    between atoms: _65  and  _66
REMARK   16  A    between atoms: _69  and  _71
REMARK   17  A    between atoms: _71  and  _72
REMARK   18  A    between atoms: _71  and  _74
REMARK   19  A    between atoms: _74  and  _75
REMARK   20  A    between atoms: _80  and  _81
REMARK   21  A    between atoms: _83  and  _85
REMARK   22  A    between atoms: _85  and  _86
REMARK   23  A    between atoms: _85  and  _88
REMARK   24  A    between atoms: _88  and  _89
REMARK   25  A    between atoms: _89  and  _90
REMARK   26  A    between atoms: _93  and  _95
REMARK   27  A    between atoms: _95  and  _96
REMARK   28  A    between atoms: _95  and  _98
REMARK   29  A    between atoms: _98  and  _99
REMARK   30  A    between atoms: _99  and  _100
REMARK   31  A    between atoms: _102  and  _104
REMARK   32  A    between atoms: _104  and  _105
REMARK   33  A    between atoms: _104  and  _107
REMARK   34  A    between atoms: _107  and  _108
REMARK   35  A    between atoms: _111  and  _113
REMARK   36  A    between atoms: _113  and  _114
REMARK   37  A    between atoms: _113  and  _116
REMARK   38  A    between atoms: _116  and  _117
REMARK   39  A    between atoms: _117  and  _119
REMARK   40  A    between atoms: _119  and  ZN_358
REMARK   41  A    between atoms: _121  and  _122
REMARK   42  A    between atoms: _127  and  _129
REMARK   43  A    between atoms: _129  and  _130
REMARK   44  A    between atoms: _129  and  _132
REMARK   45  A    between atoms: _132  and  _133
REMARK   46  A    between atoms: _139  and  _141
REMARK   47  A    between atoms: _141  and  _142
REMARK   48  A    between atoms: _141  and  _144
REMARK   49  A    between atoms: _144  and  _145
REMARK   50  A    between atoms: _145  and  _146
REMARK   51  A    between atoms: _146  and  _147
REMARK   52  A    between atoms: _156  and  _158
REMARK   53  A    between atoms: _158  and  _159
REMARK   54  A    between atoms: _158  and  _161
REMARK   55  A    between atoms: _161  and  _162
REMARK   56  A    between atoms: _164  and  _166
REMARK   57  A    between atoms: _166  and  _167
REMARK   58  A    between atoms: _166  and  _169
REMARK   59  A    between atoms: _169  and  _170
REMARK   60  A    between atoms: _175  and  _176
REMARK   61  A    between atoms: _178  and  _180
REMARK   62  A    between atoms: _180  and  _181
REMARK   63  A    between atoms: _180  and  _183
REMARK   64  A    between atoms: _183  and  _184
REMARK   65  A    between atoms: _187  and  _189
REMARK   66  A    between atoms: _189  and  _190
REMARK   67  A    between atoms: _189  and  _192
REMARK   68  A    between atoms: _192  and  _193
REMARK   69  A    between atoms: _196  and  _198
REMARK   70  A    between atoms: _198  and  _199
REMARK   71  A    between atoms: _198  and  _201
REMARK   72  A    between atoms: _201  and  _202
REMARK   73  A    between atoms: _205  and  _207
REMARK   74  A    between atoms: _207  and  _208
REMARK   75  A    between atoms: _207  and  _210
REMARK   76  A    between atoms: _210  and  _211
REMARK   77  A    between atoms: _217  and  _219
REMARK   78  A    between atoms: _219  and  _220
REMARK   79  A    between atoms: _219  and  _222
REMARK   80  A    between atoms: _222  and  _223
REMARK   81  A    between atoms: _228  and  _229
REMARK   82  A    between atoms: _231  and  _233
REMARK   83  A    between atoms: _233  and  _234
REMARK   84  A    between atoms: _233  and  _236
REMARK   85  A    between atoms: _236  and  _237
REMARK   86  A    between atoms: _247  and  _249
REMARK   87  A    between atoms: _249  and  _250
REMARK   88  A    between atoms: _249  and  _252
REMARK   89  A    between atoms: _252  and  _253
REMARK   90  A    between atoms: _258  and  _260
REMARK   91  A    between atoms: _260  and  _261
REMARK   92  A    between atoms: _260  and  _263
REMARK   93  A    between atoms: _263  and  _264
REMARK   94  A    between atoms: _268  and  ZN_358
REMARK   95  A    between atoms: _269  and  _271
REMARK   96  A    between atoms: _271  and  _272
REMARK   97  A    between atoms: _271  and  _274
REMARK   98  A    between atoms: _274  and  _275
REMARK   99  A    between atoms: _278  and  _280
REMARK  100  A    between atoms: _280  and  _281
REMARK  101  A    between atoms: _283  and  _285
REMARK  102  A    between atoms: _285  and  _286
REMARK  103  A    between atoms: _285  and  _288
REMARK  104  A    between atoms: _288  and  _289
REMARK  105  A    between atoms: _292  and  _294
REMARK  106  A    between atoms: _294  and  _295
REMARK  107  A    between atoms: _294  and  _297
REMARK  108  A    between atoms: _297  and  _298
REMARK  109  A    between atoms: _301  and  _303
REMARK  110  A    between atoms: _303  and  _304
REMARK  111  A    between atoms: _307  and  _309
REMARK  112  A    between atoms: _309  and  _310
REMARK  113  A    between atoms: _313  and  _315
REMARK  114  A    between atoms: _315  and  _316
REMARK  115  A    between atoms: _315  and  _318
REMARK  116  A    between atoms: _318  and  _319
REMARK  117  A    between atoms: _324  and  _325
REMARK  118  A    between atoms: _327  and  _329
REMARK  119  A    between atoms: _329  and  _330
REMARK  120  A    between atoms: _329  and  _332
REMARK  121  A    between atoms: _332  and  _333
REMARK  122  A    between atoms: _333  and  _334
REMARK  123  A    between atoms: _334  and  _335
REMARK  124  A    between atoms: _344  and  _346
REMARK  125  A    between atoms: _346  and  _347
REMARK  126  A    between atoms: _349  and  _351
REMARK  127  A    between atoms: _351  and  _352
REMARK  128  A    between atoms: _351  and  _354
REMARK  129  A    between atoms: _354  and  _355
REMARK                            x       y       z     vdW  Elec       q    Type
REMARK                         _______ _______ _______ _____ _____    ______ ____
ROOT
ATOM      1  CG  TYR A   1      40.345  70.907  12.867  0.00  0.00    -0.020 A 
ATOM      2  CD2 TYR A   1      39.295  71.122  13.779  0.00  0.00    -0.001 A 
ATOM      3  CE2 TYR A   1      37.992  71.262  13.293  0.00  0.00    +0.036 A 
ATOM      4  CZ  TYR A   1      37.705  71.114  11.949  0.00  0.00    +0.134 A 
ATOM      5  CE1 TYR A   1      38.728  70.871  11.042  0.00  0.00    +0.036 A 
ATOM      6  CD1 TYR A   1      40.033  70.788  11.507  0.00  0.00    -0.001 A 
ENDROOT
BRANCH   4   7
ATOM      7  OH  TYR A   1      36.399  71.211  11.490  0.00  0.00    -0.506 OA
ATOM      8  HH  TYR A   1      35.794  71.385  12.254  0.00  0.00    +0.292 HD
ENDBRANCH   4   7
BRANCH   1   9
ATOM      9  CB  TYR A   1      41.752  70.720  13.312  0.00  0.00    +0.051 C 
BRANCH   9  10
ATOM     10  CA  TYR A   1      42.378  71.674  14.294  0.00  0.00    +0.137 C 
BRANCH  10  11
ATOM     11  N   TYR A   1      42.923  72.817  13.574  0.00  0.00    -0.239 NA
ATOM     12  H   TYR A   1      42.899  72.850  12.535  0.00  0.00    +0.142 HD
ENDBRANCH  10  11
BRANCH  10  13
ATOM     13  C   TYR A   1      43.491  70.926  15.038  0.00  0.00    +0.224 C 
ATOM     14  O   TYR A   1      43.265  70.422  16.153  0.00  0.00    -0.287 OA
ENDBRANCH  10  13
ENDBRANCH   9  10
ENDBRANCH   1   9
TORSDOF 5
REMARK  Name = ../refined-set-2016/3dx1/3dx1_pocket.pdb
REMARK  129 active torsions:
REMARK  status: ('A' for Active; 'I' for Inactive)
REMARK    1  A    between atoms: _1  and  _3
REMARK    2  A    between atoms: _14  and  _17
REMARK    3  A    between atoms: _17  and  _18
REMARK    4  A    between atoms: _25  and  _26
REMARK    5  A    between atoms: _33  and  _34
REMARK    6  A    between atoms: _39  and  _41
REMARK    7  A    between atoms: _41  and  _42
REMARK    8  A    between atoms: _44  and  _46
REMARK    9  A    between atoms: _46  and  _47
REMARK   10  A    between atoms: _46  and  _49
REMARK   11  A    between atoms: _49  and  _50
REMARK   12  A    between atoms: _60  and  _62
REMARK   13  A    between atoms: _62  and  _63
REMARK   14  A    between atoms: _62  and  _65
REMARK   15  A    between atoms: _65  and  _66
REMARK   16  A    between atoms: _69  and  _71
REMARK   17  A    between atoms: _71  and  _72
REMARK   18  A    between atoms: _71  and  _74
REMARK   19  A    between atoms: _74  and  _75
REMARK   20  A    between atoms: _80  and  _81
REMARK   21  A    between atoms: _83  and  _85
REMARK   22  A    between atoms: _85  and  _86
REMARK   23  A    between atoms: _85  and  _88
REMARK   24  A    between atoms: _88  and  _89
REMARK   25  A    between atoms: _89  and  _90
REMARK   26  A    between atoms: _93  and  _95
REMARK   27  A    between atoms: _95  and  _96
REMARK   28  A    between atoms: _95  and  _98
REMARK   29  A    between atoms: _98  and  _99
REMARK   30  A    between atoms: _99  and  _100
REMARK   31  A    between atoms: _102  and  _104
REMARK   32  A    between atoms: _104  and  _105
REMARK   33  A    between atoms: _104  and  _107
REMARK   34  A    between atoms: _107  and  _108
REMARK   35  A    between atoms: _111  and  _113
REMARK   36  A    between atoms: _113  and  _114
REMARK   37  A    between atoms: _113  and  _116
REMARK   38  A    between atoms: _116  and  _117
REMARK   39  A    between atoms: _117  and  _119
REMARK   40  A    between atoms: _119  and  ZN_358
REMARK   41  A    between atoms: _121  and  _122
REMARK   42  A    between atoms: _127  and  _129
REMARK   43  A    between atoms: _129  and  _130
REMARK   44  A    between atoms: _129  and  _132
REMARK   45  A    between atoms: _132  and  _133
REMARK   46  A    between atoms: _139  and  _141
REMARK   47  A    between atoms: _141  and  _142
REMARK   48  A    between atoms: _141  and  _144
REMARK   49  A    between atoms: _144  and  _145
REMARK   50  A    between atoms: _145  and  _146
REMARK   51  A    between atoms: _146  and  _147
REMARK   52  A    between atoms: _156  and  _158
REMARK   53  A    between atoms: _158  and  _159
REMARK   54  A    between atoms: _158  and  _161
REMARK   55  A    between atoms: _161  and  _162
REMARK   56  A    between atoms: _164  and  _166
REMARK   57  A    between atoms: _166  and  _167
REMARK   58  A    between atoms: _166  and  _169
REMARK   59  A    between atoms: _169  and  _170
REMARK   60  A    between atoms: _175  and  _176
REMARK   61  A    between atoms: _178  and  _180
REMARK   62  A    between atoms: _180  and  _181
REMARK   63  A    between atoms: _180  and  _183
REMARK   64  A    between atoms: _183  and  _184
REMARK   65  A    between atoms: _187  and  _189
REMARK   66  A    between atoms: _189  and  _190
REMARK   67  A    between atoms: _189  and  _192
REMARK   68  A    between atoms: _192  and  _193
REMARK   69  A    between atoms: _196  and  _198
REMARK   70  A    between atoms: _198  and  _199
REMARK   71  A    between atoms: _198  and  _201
REMARK   72  A    between atoms: _201  and  _202
REMARK   73  A    between atoms: _205  and  _207
REMARK   74  A    between atoms: _207  and  _208
REMARK   75  A    between atoms: _207  and  _210
REMARK   76  A    between atoms: _210  and  _211
REMARK   77  A    between atoms: _217  and  _219
REMARK   78  A    between atoms: _219  and  _220
REMARK   79  A    between atoms: _219  and  _222
REMARK   80  A    between atoms: _222  and  _223
REMARK   81  A    between atoms: _228  and  _229
REMARK   82  A    between atoms: _231  and  _233
REMARK   83  A    between atoms: _233  and  _234
REMARK   84  A    between atoms: _233  and  _236
REMARK   85  A    between atoms: _236  and  _237
REMARK   86  A    between atoms: _247  and  _249
REMARK   87  A    between atoms: _249  and  _250
REMARK   88  A    between atoms: _249  and  _252
REMARK   89  A    between atoms: _252  and  _253
REMARK   90  A    between atoms: _258  and  _260
REMARK   91  A    between atoms: _260  and  _261
REMARK   92  A    between atoms: _260  and  _263
REMARK   93  A    between atoms: _263  and  _264
REMARK   94  A    between atoms: _268  and  ZN_358
REMARK   95  A    between atoms: _269  and  _271
REMARK   96  A    between atoms: _271  and  _272
REMARK   97  A    between atoms: _271  and  _274
REMARK   98  A    between atoms: _274  and  _275
REMARK   99  A    between atoms: _278  and  _280
REMARK  100  A    between atoms: _280  and  _281
REMARK  101  A    between atoms: _283  and  _285
REMARK  102  A    between atoms: _285  and  _286
REMARK  103  A    between atoms: _285  and  _288
REMARK  104  A    between atoms: _288  and  _289
REMARK  105  A    between atoms: _292  and  _294
REMARK  106  A    between atoms: _294  and  _295
REMARK  107  A    between atoms: _294  and  _297
REMARK  108  A    between atoms: _297  and  _298
REMARK  109  A    between atoms: _301  and  _303
REMARK  110  A    between atoms: _303  and  _304
REMARK  111  A    between atoms: _307  and  _309
REMARK  112  A    between atoms: _309  and  _310
REMARK  113  A    between atoms: _313  and  _315
REMARK  114  A    between atoms: _315  and  _316
REMARK  115  A    between atoms: _315  and  _318
REMARK  116  A    between atoms: _318  and  _319
REMARK  117  A    between atoms: _324  and  _325
REMARK  118  A    between atoms: _327  and  _329
REMARK  119  A    between atoms: _329  and  _330
REMARK  120  A    between atoms: _329  and  _332
REMARK  121  A    between atoms: _332  and  _333
REMARK  122  A    between atoms: _333  and  _334
REMARK  123  A    between atoms: _334  and  _335
REMARK  124  A    between atoms: _344  and  _346
REMARK  125  A    between atoms: _346  and  _347
REMARK  126  A    between atoms: _349  and  _351
REMARK  127  A    between atoms: _351  and  _352
REMARK  128  A    between atoms: _351  and  _354
REMARK  129  A    between atoms: _354  and  _355
REMARK                            x       y       z     vdW  Elec       q    Type
REMARK                         _______ _______ _______ _____ _____    ______ ____
ROOT
ATOM      1  CA  GLU A   1      44.135  60.013   9.464  0.00  0.00    +0.134 C 
ENDROOT
BRANCH   1   2
ATOM      2  N   GLU A   1      43.554  58.916  10.299  0.00  0.00    -0.239 NA
ATOM      3  H   GLU A   1      43.253  59.127  11.272  0.00  0.00    +0.142 HD
ENDBRANCH   1   2
BRANCH   1   4
ATOM      4  C   GLU A   1      45.615  60.159   9.755  0.00  0.00    +0.224 C 
ATOM      5  O   GLU A   1      46.036  60.744  10.781  0.00  0.00    -0.287 OA
ENDBRANCH   1   4
BRANCH   1   6
ATOM      6  CB  GLU A   1      43.370  61.317   9.698  0.00  0.00    +0.037 C 
BRANCH   6   7
ATOM      7  CG  GLU A   1      41.866  61.266   9.430  0.00  0.00    +0.116 C 
BRANCH   7   8
ATOM      8  CD  GLU A   1      41.009  60.776  10.558  0.00  0.00    +0.365 C 
ATOM      9  OE2 GLU A   1      41.578  60.522  11.659  0.00  0.00    -0.246 OA
ATOM     10  OE1 GLU A   1      39.762  60.718  10.426  0.00  0.00    -0.246 OA
ENDBRANCH   7   8
ENDBRANCH   6   7
ENDBRANCH   1   6
TORSDOF 5
REMARK  Name = ../refined-set-2016/3dx1/3dx1_pocket.pdb
REMARK  129 active torsions:
REMARK  status: ('A' for Active; 'I' for Inactive)
REMARK    1  A    between atoms: _1  and  _3
REMARK    2  A    between atoms: _14  and  _17
REMARK    3  A    between atoms: _17  and  _18
REMARK    4  A    between atoms: _25  and  _26
REMARK    5  A    between atoms: _33  and  _34
REMARK    6  A    between atoms: _39  and  _41
REMARK    7  A    between atoms: _41  and  _42
REMARK    8  A    between atoms: _44  and  _46
REMARK    9  A    between atoms: _46  and  _47
REMARK   10  A    between atoms: _46  and  _49
REMARK   11  A    between atoms: _49  and  _50
REMARK   12  A    between atoms: _60  and  _62
REMARK   13  A    between atoms: _62  and  _63
REMARK   14  A    between atoms: _62  and  _65
REMARK   15  A    between atoms: _65  and  _66
REMARK   16  A    between atoms: _69  and  _71
REMARK   17  A    between atoms: _71  and  _72
REMARK   18  A    between atoms: _71  and  _74
REMARK   19  A    between atoms: _74  and  _75
REMARK   20  A    between atoms: _80  and  _81
REMARK   21  A    between atoms: _83  and  _85
REMARK   22  A    between atoms: _85  and  _86
REMARK   23  A    between atoms: _85  and  _88
REMARK   24  A    between atoms: _88  and  _89
REMARK   25  A    between atoms: _89  and  _90
REMARK   26  A    between atoms: _93  and  _95
REMARK   27  A    between atoms: _95  and  _96
REMARK   28  A    between atoms: _95  and  _98
REMARK   29  A    between atoms: _98  and  _99
REMARK   30  A    between atoms: _99  and  _100
REMARK   31  A    between atoms: _102  and  _104
REMARK   32  A    between atoms: _104  and  _105
REMARK   33  A    between atoms: _104  and  _107
REMARK   34  A    between atoms: _107  and  _108
REMARK   35  A    between atoms: _111  and  _113
REMARK   36  A    between atoms: _113  and  _114
REMARK   37  A    between atoms: _113  and  _116
REMARK   38  A    between atoms: _116  and  _117
REMARK   39  A    between atoms: _117  and  _119
REMARK   40  A    between atoms: _119  and  ZN_358
REMARK   41  A    between atoms: _121  and  _122
REMARK   42  A    between atoms: _127  and  _129
REMARK   43  A    between atoms: _129  and  _130
REMARK   44  A    between atoms: _129  and  _132
REMARK   45  A    between atoms: _132  and  _133
REMARK   46  A    between atoms: _139  and  _141
REMARK   47  A    between atoms: _141  and  _142
REMARK   48  A    between atoms: _141  and  _144
REMARK   49  A    between atoms: _144  and  _145
REMARK   50  A    between atoms: _145  and  _146
REMARK   51  A    between atoms: _146  and  _147
REMARK   52  A    between atoms: _156  and  _158
REMARK   53  A    between atoms: _158  and  _159
REMARK   54  A    between atoms: _158  and  _161
REMARK   55  A    between atoms: _161  and  _162
REMARK   56  A    between atoms: _164  and  _166
REMARK   57  A    between atoms: _166  and  _167
REMARK   58  A    between atoms: _166  and  _169
REMARK   59  A    between atoms: _169  and  _170
REMARK   60  A    between atoms: _175  and  _176
REMARK   61  A    between atoms: _178  and  _180
REMARK   62  A    between atoms: _180  and  _181
REMARK   63  A    between atoms: _180  and  _183
REMARK   64  A    between atoms: _183  and  _184
REMARK   65  A    between atoms: _187  and  _189
REMARK   66  A    between atoms: _189  and  _190
REMARK   67  A    between atoms: _189  and  _192
REMARK   68  A    between atoms: _192  and  _193
REMARK   69  A    between atoms: _196  and  _198
REMARK   70  A    between atoms: _198  and  _199
REMARK   71  A    between atoms: _198  and  _201
REMARK   72  A    between atoms: _201  and  _202
REMARK   73  A    between atoms: _205  and  _207
REMARK   74  A    between atoms: _207  and  _208
REMARK   75  A    between atoms: _207  and  _210
REMARK   76  A    between atoms: _210  and  _211
REMARK   77  A    between atoms: _217  and  _219
REMARK   78  A    between atoms: _219  and  _220
REMARK   79  A    between atoms: _219  and  _222
REMARK   80  A    between atoms: _222  and  _223
REMARK   81  A    between atoms: _228  and  _229
REMARK   82  A    between atoms: _231  and  _233
REMARK   83  A    between atoms: _233  and  _234
REMARK   84  A    between atoms: _233  and  _236
REMARK   85  A    between atoms: _236  and  _237
REMARK   86  A    between atoms: _247  and  _249
REMARK   87  A    between atoms: _249  and  _250
REMARK   88  A    between atoms: _249  and  _252
REMARK   89  A    between atoms: _252  and  _253
REMARK   90  A    between atoms: _258  and  _260
REMARK   91  A    between atoms: _260  and  _261
REMARK   92  A    between atoms: _260  and  _263
REMARK   93  A    between atoms: _263  and  _264
REMARK   94  A    between atoms: _268  and  ZN_358
REMARK   95  A    between atoms: _269  and  _271
REMARK   96  A    between atoms: _271  and  _272
REMARK   97  A    between atoms: _271  and  _274
REMARK   98  A    between atoms: _274  and  _275
REMARK   99  A    between atoms: _278  and  _280
REMARK  100  A    between atoms: _280  and  _281
REMARK  101  A    between atoms: _283  and  _285
REMARK  102  A    between atoms: _285  and  _286
REMARK  103  A    between atoms: _285  and  _288
REMARK  104  A    between atoms: _288  and  _289
REMARK  105  A    between atoms: _292  and  _294
REMARK  106  A    between atoms: _294  and  _295
REMARK  107  A    between atoms: _294  and  _297
REMARK  108  A    between atoms: _297  and  _298
REMARK  109  A    between atoms: _301  and  _303
REMARK  110  A    between atoms: _303  and  _304
REMARK  111  A    between atoms: _307  and  _309
REMARK  112  A    between atoms: _309  and  _310
REMARK  113  A    between atoms: _313  and  _315
REMARK  114  A    between atoms: _315  and  _316
REMARK  115  A    between atoms: _315  and  _318
REMARK  116  A    between atoms: _318  and  _319
REMARK  117  A    between atoms: _324  and  _325
REMARK  118  A    between atoms: _327  and  _329
REMARK  119  A    between atoms: _329  and  _330
REMARK  120  A    between atoms: _329  and  _332
REMARK  121  A    between atoms: _332  and  _333
REMARK  122  A    between atoms: _333  and  _334
REMARK  123  A    between atoms: _334  and  _335
REMARK  124  A    between atoms: _344  and  _346
REMARK  125  A    between atoms: _346  and  _347
REMARK  126  A    between atoms: _349  and  _351
REMARK  127  A    between atoms: _351  and  _352
REMARK  128  A    between atoms: _351  and  _354
REMARK  129  A    between atoms: _354  and  _355
REMARK                            x       y       z     vdW  Elec       q    Type
REMARK                         _______ _______ _______ _____ _____    ______ ____
ROOT
ATOM      1  CA  MET A   1      39.963  59.411   4.560  0.00  0.00    +0.134 C 
ENDROOT
BRANCH   1   2
ATOM      2  N   MET A   1      41.107  60.289   4.941  0.00  0.00    -0.239 NA
ATOM      3  H   MET A   1      40.898  61.191   5.414  0.00  0.00    +0.142 HD
ENDBRANCH   1   2
BRANCH   1   4
ATOM      4  C   MET A   1      39.380  60.091   3.315  0.00  0.00    +0.224 C 
ATOM      5  O   MET A   1      38.643  61.091   3.467  0.00  0.00    -0.287 OA
ENDBRANCH   1   4
BRANCH   1   6
ATOM      6  CB  MET A   1      38.996  59.387   5.734  0.00  0.00    +0.037 C 
BRANCH   6   7
ATOM      7  CG  MET A   1      37.714  58.602   5.429  0.00  0.00    +0.059 C 
BRANCH   7   8
ATOM      8  SD  MET A   1      36.525  58.701   6.805  0.00  0.00    -0.139 S 
ATOM      9  CE  MET A   1      37.497  57.921   8.118  0.00  0.00    +0.069 C 
ENDBRANCH   7   8
ENDBRANCH   6   7
ENDBRANCH   1   6
TORSDOF 5
REMARK  Name = ../refined-set-2016/3dx1/3dx1_pocket.pdb
REMARK  129 active torsions:
REMARK  status: ('A' for Active; 'I' for Inactive)
REMARK    1  A    between atoms: _1  and  _3
REMARK    2  A    between atoms: _14  and  _17
REMARK    3  A    between atoms: _17  and  _18
REMARK    4  A    between atoms: _25  and  _26
REMARK    5  A    between atoms: _33  and  _34
REMARK    6  A    between atoms: _39  and  _41
REMARK    7  A    between atoms: _41  and  _42
REMARK    8  A    between atoms: _44  and  _46
REMARK    9  A    between atoms: _46  and  _47
REMARK   10  A    between atoms: _46  and  _49
REMARK   11  A    between atoms: _49  and  _50
REMARK   12  A    between atoms: _60  and  _62
REMARK   13  A    between atoms: _62  and  _63
REMARK   14  A    between atoms: _62  and  _65
REMARK   15  A    between atoms: _65  and  _66
REMARK   16  A    between atoms: _69  and  _71
REMARK   17  A    between atoms: _71  and  _72
REMARK   18  A    between atoms: _71  and  _74
REMARK   19  A    between atoms: _74  and  _75
REMARK   20  A    between atoms: _80  and  _81
REMARK   21  A    between atoms: _83  and  _85
REMARK   22  A    between atoms: _85  and  _86
REMARK   23  A    between atoms: _85  and  _88
REMARK   24  A    between atoms: _88  and  _89
REMARK   25  A    between atoms: _89  and  _90
REMARK   26  A    between atoms: _93  and  _95
REMARK   27  A    between atoms: _95  and  _96
REMARK   28  A    between atoms: _95  and  _98
REMARK   29  A    between atoms: _98  and  _99
REMARK   30  A    between atoms: _99  and  _100
REMARK   31  A    between atoms: _102  and  _104
REMARK   32  A    between atoms: _104  and  _105
REMARK   33  A    between atoms: _104  and  _107
REMARK   34  A    between atoms: _107  and  _108
REMARK   35  A    between atoms: _111  and  _113
REMARK   36  A    between atoms: _113  and  _114
REMARK   37  A    between atoms: _113  and  _116
REMARK   38  A    between atoms: _116  and  _117
REMARK   39  A    between atoms: _117  and  _119
REMARK   40  A    between atoms: _119  and  ZN_358
REMARK   41  A    between atoms: _121  and  _122
REMARK   42  A    between atoms: _127  and  _129
REMARK   43  A    between atoms: _129  and  _130
REMARK   44  A    between atoms: _129  and  _132
REMARK   45  A    between atoms: _132  and  _133
REMARK   46  A    between atoms: _139  and  _141
REMARK   47  A    between atoms: _141  and  _142
REMARK   48  A    between atoms: _141  and  _144
REMARK   49  A    between atoms: _144  and  _145
REMARK   50  A    between atoms: _145  and  _146
REMARK   51  A    between atoms: _146  and  _147
REMARK   52  A    between atoms: _156  and  _158
REMARK   53  A    between atoms: _158  and  _159
REMARK   54  A    between atoms: _158  and  _161
REMARK   55  A    between atoms: _161  and  _162
REMARK   56  A    between atoms: _164  and  _166
REMARK   57  A    between atoms: _166  and  _167
REMARK   58  A    between atoms: _166  and  _169
REMARK   59  A    between atoms: _169  and  _170
REMARK   60  A    between atoms: _175  and  _176
REMARK   61  A    between atoms: _178  and  _180
REMARK   62  A    between atoms: _180  and  _181
REMARK   63  A    between atoms: _180  and  _183
REMARK   64  A    between atoms: _183  and  _184
REMARK   65  A    between atoms: _187  and  _189
REMARK   66  A    between atoms: _189  and  _190
REMARK   67  A    between atoms: _189  and  _192
REMARK   68  A    between atoms: _192  and  _193
REMARK   69  A    between atoms: _196  and  _198
REMARK   70  A    between atoms: _198  and  _199
REMARK   71  A    between atoms: _198  and  _201
REMARK   72  A    between atoms: _201  and  _202
REMARK   73  A    between atoms: _205  and  _207
REMARK   74  A    between atoms: _207  and  _208
REMARK   75  A    between atoms: _207  and  _210
REMARK   76  A    between atoms: _210  and  _211
REMARK   77  A    between atoms: _217  and  _219
REMARK   78  A    between atoms: _219  and  _220
REMARK   79  A    between atoms: _219  and  _222
REMARK   80  A    between atoms: _222  and  _223
REMARK   81  A    between atoms: _228  and  _229
REMARK   82  A    between atoms: _231  and  _233
REMARK   83  A    between atoms: _233  and  _234
REMARK   84  A    between atoms: _233  and  _236
REMARK   85  A    between atoms: _236  and  _237
REMARK   86  A    between atoms: _247  and  _249
REMARK   87  A    between atoms: _249  and  _250
REMARK   88  A    between atoms: _249  and  _252
REMARK   89  A    between atoms: _252  and  _253
REMARK   90  A    between atoms: _258  and  _260
REMARK   91  A    between atoms: _260  and  _261
REMARK   92  A    between atoms: _260  and  _263
REMARK   93  A    between atoms: _263  and  _264
REMARK   94  A    between atoms: _268  and  ZN_358
REMARK   95  A    between atoms: _269  and  _271
REMARK   96  A    between atoms: _271  and  _272
REMARK   97  A    between atoms: _271  and  _274
REMARK   98  A    between atoms: _274  and  _275
REMARK   99  A    between atoms: _278  and  _280
REMARK  100  A    between atoms: _280  and  _281
REMARK  101  A    between atoms: _283  and  _285
REMARK  102  A    between atoms: _285  and  _286
REMARK  103  A    between atoms: _285  and  _288
REMARK  104  A    between atoms: _288  and  _289
REMARK  105  A    between atoms: _292  and  _294
REMARK  106  A    between atoms: _294  and  _295
REMARK  107  A    between atoms: _294  and  _297
REMARK  108  A    between atoms: _297  and  _298
REMARK  109  A    between atoms: _301  and  _303
REMARK  110  A    between atoms: _303  and  _304
REMARK  111  A    between atoms: _307  and  _309
REMARK  112  A    between atoms: _309  and  _310
REMARK  113  A    between atoms: _313  and  _315
REMARK  114  A    between atoms: _315  and  _316
REMARK  115  A    between atoms: _315  and  _318
REMARK  116  A    between atoms: _318  and  _319
REMARK  117  A    between atoms: _324  and  _325
REMARK  118  A    between atoms: _327  and  _329
REMARK  119  A    between atoms: _329  and  _330
REMARK  120  A    between atoms: _329  and  _332
REMARK  121  A    between atoms: _332  and  _333
REMARK  122  A    between atoms: _333  and  _334
REMARK  123  A    between atoms: _334  and  _335
REMARK  124  A    between atoms: _344  and  _346
REMARK  125  A    between atoms: _346  and  _347
REMARK  126  A    between atoms: _349  and  _351
REMARK  127  A    between atoms: _351  and  _352
REMARK  128  A    between atoms: _351  and  _354
REMARK  129  A    between atoms: _354  and  _355
REMARK                            x       y       z     vdW  Elec       q    Type
REMARK                         _______ _______ _______ _____ _____    ______ ____
ROOT
ATOM      1  NE  ARG A   1      28.661  61.269   5.655  0.00  0.00    -0.265 N 
ATOM      2  CZ  ARG A   1      27.816  62.057   6.333  0.00  0.00    +0.342 C 
ATOM      3  NH2 ARG A   1      28.319  62.958   7.182  0.00  0.00    -0.292 N 
ATOM      4 HH21 ARG A   1      27.681  63.580   7.719  0.00  0.00    +0.255 HD
ATOM      5 HH22 ARG A   1      29.348  63.037   7.306  0.00  0.00    +0.255 HD
ATOM      6  NH1 ARG A   1      26.512  61.930   6.161  0.00  0.00    -0.292 N 
ATOM      7 HH11 ARG A   1      25.856  62.542   6.687  0.00  0.00    +0.255 HD
ATOM      8 HH12 ARG A   1      26.142  61.218   5.499  0.00  0.00    +0.255 HD
ATOM      9  HE  ARG A   1      29.664  61.370   5.912  0.00  0.00    +0.259 HD
ENDROOT
BRANCH   1  10
ATOM     10  CD  ARG A   1      28.392  60.321   4.642  0.00  0.00    +0.174 C 
BRANCH  10  11
ATOM     11  CG  ARG A   1      28.104  58.904   5.006  0.00  0.00    +0.045 C 
BRANCH  11  12
ATOM     12  CB  ARG A   1      27.894  58.107   3.711  0.00  0.00    +0.029 C 
BRANCH  12  13
ATOM     13  CA  ARG A   1      27.277  56.742   3.966  0.00  0.00    +0.133 C 
BRANCH  13  14
ATOM     14  N   ARG A   1      28.252  55.824   4.566  0.00  0.00    -0.239 NA
ATOM     15  H   ARG A   1      29.265  55.916   4.350  0.00  0.00    +0.142 HD
ENDBRANCH  13  14
BRANCH  13  16
ATOM     16  C   ARG A   1      26.777  56.149   2.679  0.00  0.00    +0.224 C 
ATOM     17  O   ARG A   1      27.276  56.394   1.588  0.00  0.00    -0.287 OA
ENDBRANCH  13  16
ENDBRANCH  12  13
ENDBRANCH  11  12
ENDBRANCH  10  11
ENDBRANCH   1  10
TORSDOF 6
REMARK  Name = ../refined-set-2016/3dx1/3dx1_pocket.pdb
REMARK  129 active torsions:
REMARK  status: ('A' for Active; 'I' for Inactive)
REMARK    1  A    between atoms: _1  and  _3
REMARK    2  A    between atoms: _14  and  _17
REMARK    3  A    between atoms: _17  and  _18
REMARK    4  A    between atoms: _25  and  _26
REMARK    5  A    between atoms: _33  and  _34
REMARK    6  A    between atoms: _39  and  _41
REMARK    7  A    between atoms: _41  and  _42
REMARK    8  A    between atoms: _44  and  _46
REMARK    9  A    between atoms: _46  and  _47
REMARK   10  A    between atoms: _46  and  _49
REMARK   11  A    between atoms: _49  and  _50
REMARK   12  A    between atoms: _60  and  _62
REMARK   13  A    between atoms: _62  and  _63
REMARK   14  A    between atoms: _62  and  _65
REMARK   15  A    between atoms: _65  and  _66
REMARK   16  A    between atoms: _69  and  _71
REMARK   17  A    between atoms: _71  and  _72
REMARK   18  A    between atoms: _71  and  _74
REMARK   19  A    between atoms: _74  and  _75
REMARK   20  A    between atoms: _80  and  _81
REMARK   21  A    between atoms: _83  and  _85
REMARK   22  A    between atoms: _85  and  _86
REMARK   23  A    between atoms: _85  and  _88
REMARK   24  A    between atoms: _88  and  _89
REMARK   25  A    between atoms: _89  and  _90
REMARK   26  A    between atoms: _93  and  _95
REMARK   27  A    between atoms: _95  and  _96
REMARK   28  A    between atoms: _95  and  _98
REMARK   29  A    between atoms: _98  and  _99
REMARK   30  A    between atoms: _99  and  _100
REMARK   31  A    between atoms: _102  and  _104
REMARK   32  A    between atoms: _104  and  _105
REMARK   33  A    between atoms: _104  and  _107
REMARK   34  A    between atoms: _107  and  _108
REMARK   35  A    between atoms: _111  and  _113
REMARK   36  A    between atoms: _113  and  _114
REMARK   37  A    between atoms: _113  and  _116
REMARK   38  A    between atoms: _116  and  _117
REMARK   39  A    between atoms: _117  and  _119
REMARK   40  A    between atoms: _119  and  ZN_358
REMARK   41  A    between atoms: _121  and  _122
REMARK   42  A    between atoms: _127  and  _129
REMARK   43  A    between atoms: _129  and  _130
REMARK   44  A    between atoms: _129  and  _132
REMARK   45  A    between atoms: _132  and  _133
REMARK   46  A    between atoms: _139  and  _141
REMARK   47  A    between atoms: _141  and  _142
REMARK   48  A    between atoms: _141  and  _144
REMARK   49  A    between atoms: _144  and  _145
REMARK   50  A    between atoms: _145  and  _146
REMARK   51  A    between atoms: _146  and  _147
REMARK   52  A    between atoms: _156  and  _158
REMARK   53  A    between atoms: _158  and  _159
REMARK   54  A    between atoms: _158  and  _161
REMARK   55  A    between atoms: _161  and  _162
REMARK   56  A    between atoms: _164  and  _166
REMARK   57  A    between atoms: _166  and  _167
REMARK   58  A    between atoms: _166  and  _169
REMARK   59  A    between atoms: _169  and  _170
REMARK   60  A    between atoms: _175  and  _176
REMARK   61  A    between atoms: _178  and  _180
REMARK   62  A    between atoms: _180  and  _181
REMARK   63  A    between atoms: _180  and  _183
REMARK   64  A    between atoms: _183  and  _184
REMARK   65  A    between atoms: _187  and  _189
REMARK   66  A    between atoms: _189  and  _190
REMARK   67  A    between atoms: _189  and  _192
REMARK   68  A    between atoms: _192  and  _193
REMARK   69  A    between atoms: _196  and  _198
REMARK   70  A    between atoms: _198  and  _199
REMARK   71  A    between atoms: _198  and  _201
REMARK   72  A    between atoms: _201  and  _202
REMARK   73  A    between atoms: _205  and  _207
REMARK   74  A    between atoms: _207  and  _208
REMARK   75  A    between atoms: _207  and  _210
REMARK   76  A    between atoms: _210  and  _211
REMARK   77  A    between atoms: _217  and  _219
REMARK   78  A    between atoms: _219  and  _220
REMARK   79  A    between atoms: _219  and  _222
REMARK   80  A    between atoms: _222  and  _223
REMARK   81  A    between atoms: _228  and  _229
REMARK   82  A    between atoms: _231  and  _233
REMARK   83  A    between atoms: _233  and  _234
REMARK   84  A    between atoms: _233  and  _236
REMARK   85  A    between atoms: _236  and  _237
REMARK   86  A    between atoms: _247  and  _249
REMARK   87  A    between atoms: _249  and  _250
REMARK   88  A    between atoms: _249  and  _252
REMARK   89  A    between atoms: _252  and  _253
REMARK   90  A    between atoms: _258  and  _260
REMARK   91  A    between atoms: _260  and  _261
REMARK   92  A    between atoms: _260  and  _263
REMARK   93  A    between atoms: _263  and  _264
REMARK   94  A    between atoms: _268  and  ZN_358
REMARK   95  A    between atoms: _269  and  _271
REMARK   96  A    between atoms: _271  and  _272
REMARK   97  A    between atoms: _271  and  _274
REMARK   98  A    between atoms: _274  and  _275
REMARK   99  A    between atoms: _278  and  _280
REMARK  100  A    between atoms: _280  and  _281
REMARK  101  A    between atoms: _283  and  _285
REMARK  102  A    between atoms: _285  and  _286
REMARK  103  A    between atoms: _285  and  _288
REMARK  104  A    between atoms: _288  and  _289
REMARK  105  A    between atoms: _292  and  _294
REMARK  106  A    between atoms: _294  and  _295
REMARK  107  A    between atoms: _294  and  _297
REMARK  108  A    between atoms: _297  and  _298
REMARK  109  A    between atoms: _301  and  _303
REMARK  110  A    between atoms: _303  and  _304
REMARK  111  A    between atoms: _307  and  _309
REMARK  112  A    between atoms: _309  and  _310
REMARK  113  A    between atoms: _313  and  _315
REMARK  114  A    between atoms: _315  and  _316
REMARK  115  A    between atoms: _315  and  _318
REMARK  116  A    between atoms: _318  and  _319
REMARK  117  A    between atoms: _324  and  _325
REMARK  118  A    between atoms: _327  and  _329
REMARK  119  A    between atoms: _329  and  _330
REMARK  120  A    between atoms: _329  and  _332
REMARK  121  A    between atoms: _332  and  _333
REMARK  122  A    between atoms: _333  and  _334
REMARK  123  A    between atoms: _334  and  _335
REMARK  124  A    between atoms: _344  and  _346
REMARK  125  A    between atoms: _346  and  _347
REMARK  126  A    between atoms: _349  and  _351
REMARK  127  A    between atoms: _351  and  _352
REMARK  128  A    between atoms: _351  and  _354
REMARK  129  A    between atoms: _354  and  _355
REMARK                            x       y       z     vdW  Elec       q    Type
REMARK                         _______ _______ _______ _____ _____    ______ ____
ROOT
ATOM      1  CA  TYR A   2      28.432  56.933  12.873  0.00  0.00    +0.153 C 
ENDROOT
BRANCH   1   4
ATOM      2  C   SER A   1      26.192  57.252  11.972  0.00  0.00    +0.241 C 
ATOM      3  O   SER A   1      25.804  56.173  12.421  0.00  0.00    -0.274 OA
ATOM      4  N   TYR A   2      27.468  57.667  12.074  0.00  0.00    -0.297 N 
ATOM      5  H   TYR A   2      27.768  58.527  11.572  0.00  0.00    +0.150 HD
BRANCH   2   6
ATOM      6  CA  SER A   1      25.228  58.230  11.322  0.00  0.00    +0.174 C 
BRANCH   6   7
ATOM      7  N   SER A   1      23.979  57.538  11.023  0.00  0.00    -0.236 NA
ATOM      8  H   SER A   1      23.648  56.803  11.680  0.00  0.00    +0.142 HD
ENDBRANCH   6   7
BRANCH   6   9
ATOM      9  CB  SER A   1      24.955  59.417  12.283  0.00  0.00    +0.163 C 
BRANCH   9  10
ATOM     10  OG  SER A   1      26.164  60.067  12.637  0.00  0.00    -0.380 OA
ATOM     11  H   SER A   1      26.603  60.412  11.820  0.00  0.00    +0.211 HD
ENDBRANCH   9  10
ENDBRANCH   6   9
ENDBRANCH   2   6
ENDBRANCH   1   4
BRANCH   1  12
ATOM     12  C   TYR A   2      28.519  57.423  14.317  0.00  0.00    +0.241 C 
ATOM     13  O   TYR A   2      29.409  56.970  15.046  0.00  0.00    -0.273 OA
ATOM     14  N   ASP A   3      27.717  58.424  14.719  0.00  0.00    -0.298 N 
ATOM     15  H   ASP A   3      27.025  58.825  14.054  0.00  0.00    +0.150 HD
BRANCH  14  16
ATOM     16  CA  ASP A   3      27.804  58.967  16.100  0.00  0.00    +0.148 C 
BRANCH  16  17
ATOM     17  C   ASP A   3      27.239  57.947  17.056  0.00  0.00    +0.227 C 
ATOM     18  O   ASP A   3      26.636  56.916  16.659  0.00  0.00    -0.286 OA
ENDBRANCH  16  17
BRANCH  16  19
ATOM     19  CB  ASP A   3      27.117  60.312  16.168  0.00  0.00    +0.142 C 
BRANCH  19  20
ATOM     20  CG  ASP A   3      25.634  60.356  15.940  0.00  0.00    +0.367 C 
ATOM     21  OD2 ASP A   3      25.102  61.508  15.869  0.00  0.00    -0.246 OA
ATOM     22  OD1 ASP A   3      24.959  59.320  15.788  0.00  0.00    -0.246 OA
ENDBRANCH  19  20
ENDBRANCH  16  19
ENDBRANCH  14  16
ENDBRANCH   1  12
BRANCH   1  23
ATOM     23  CB  TYR A   2      29.858  57.018  12.253  0.00  0.00    +0.055 C 
BRANCH  23  24
ATOM     24  CG  TYR A   2      30.311  58.444  12.004  0.00  0.00    -0.020 A 
ATOM     25  CD2 TYR A   2      30.791  59.259  13.037  0.00  0.00    -0.001 A 
ATOM     26  CE2 TYR A   2      31.208  60.570  12.817  0.00  0.00    +0.036 A 
ATOM     27  CZ  TYR A   2      31.184  61.055  11.511  0.00  0.00    +0.134 A 
ATOM     28  CE1 TYR A   2      30.715  60.267  10.462  0.00  0.00    +0.036 A 
ATOM     29  CD1 TYR A   2      30.279  58.962  10.690  0.00  0.00    -0.001 A 
BRANCH  27  30
ATOM     30  OH  TYR A   2      31.579  62.325  11.237  0.00  0.00    -0.506 OA
ATOM     31  HH  TYR A   2      31.885  62.761  12.071  0.00  0.00    +0.292 HD
ENDBRANCH  27  30
ENDBRANCH  23  24
ENDBRANCH   1  23
TORSDOF 13
REMARK  Name = ../refined-set-2016/3dx1/3dx1_pocket.pdb
REMARK  129 active torsions:
REMARK  status: ('A' for Active; 'I' for Inactive)
REMARK    1  A    between atoms: _1  and  _3
REMARK    2  A    between atoms: _14  and  _17
REMARK    3  A    between atoms: _17  and  _18
REMARK    4  A    between atoms: _25  and  _26
REMARK    5  A    between atoms: _33  and  _34
REMARK    6  A    between atoms: _39  and  _41
REMARK    7  A    between atoms: _41  and  _42
REMARK    8  A    between atoms: _44  and  _46
REMARK    9  A    between atoms: _46  and  _47
REMARK   10  A    between atoms: _46  and  _49
REMARK   11  A    between atoms: _49  and  _50
REMARK   12  A    between atoms: _60  and  _62
REMARK   13  A    between atoms: _62  and  _63
REMARK   14  A    between atoms: _62  and  _65
REMARK   15  A    between atoms: _65  and  _66
REMARK   16  A    between atoms: _69  and  _71
REMARK   17  A    between atoms: _71  and  _72
REMARK   18  A    between atoms: _71  and  _74
REMARK   19  A    between atoms: _74  and  _75
REMARK   20  A    between atoms: _80  and  _81
REMARK   21  A    between atoms: _83  and  _85
REMARK   22  A    between atoms: _85  and  _86
REMARK   23  A    between atoms: _85  and  _88
REMARK   24  A    between atoms: _88  and  _89
REMARK   25  A    between atoms: _89  and  _90
REMARK   26  A    between atoms: _93  and  _95
REMARK   27  A    between atoms: _95  and  _96
REMARK   28  A    between atoms: _95  and  _98
REMARK   29  A    between atoms: _98  and  _99
REMARK   30  A    between atoms: _99  and  _100
REMARK   31  A    between atoms: _102  and  _104
REMARK   32  A    between atoms: _104  and  _105
REMARK   33  A    between atoms: _104  and  _107
REMARK   34  A    between atoms: _107  and  _108
REMARK   35  A    between atoms: _111  and  _113
REMARK   36  A    between atoms: _113  and  _114
REMARK   37  A    between atoms: _113  and  _116
REMARK   38  A    between atoms: _116  and  _117
REMARK   39  A    between atoms: _117  and  _119
REMARK   40  A    between atoms: _119  and  ZN_358
REMARK   41  A    between atoms: _121  and  _122
REMARK   42  A    between atoms: _127  and  _129
REMARK   43  A    between atoms: _129  and  _130
REMARK   44  A    between atoms: _129  and  _132
REMARK   45  A    between atoms: _132  and  _133
REMARK   46  A    between atoms: _139  and  _141
REMARK   47  A    between atoms: _141  and  _142
REMARK   48  A    between atoms: _141  and  _144
REMARK   49  A    between atoms: _144  and  _145
REMARK   50  A    between atoms: _145  and  _146
REMARK   51  A    between atoms: _146  and  _147
REMARK   52  A    between atoms: _156  and  _158
REMARK   53  A    between atoms: _158  and  _159
REMARK   54  A    between atoms: _158  and  _161
REMARK   55  A    between atoms: _161  and  _162
REMARK   56  A    between atoms: _164  and  _166
REMARK   57  A    between atoms: _166  and  _167
REMARK   58  A    between atoms: _166  and  _169
REMARK   59  A    between atoms: _169  and  _170
REMARK   60  A    between atoms: _175  and  _176
REMARK   61  A    between atoms: _178  and  _180
REMARK   62  A    between atoms: _180  and  _181
REMARK   63  A    between atoms: _180  and  _183
REMARK   64  A    between atoms: _183  and  _184
REMARK   65  A    between atoms: _187  and  _189
REMARK   66  A    between atoms: _189  and  _190
REMARK   67  A    between atoms: _189  and  _192
REMARK   68  A    between atoms: _192  and  _193
REMARK   69  A    between atoms: _196  and  _198
REMARK   70  A    between atoms: _198  and  _199
REMARK   71  A    between atoms: _198  and  _201
REMARK   72  A    between atoms: _201  and  _202
REMARK   73  A    between atoms: _205  and  _207
REMARK   74  A    between atoms: _207  and  _208
REMARK   75  A    between atoms: _207  and  _210
REMARK   76  A    between atoms: _210  and  _211
REMARK   77  A    between atoms: _217  and  _219
REMARK   78  A    between atoms: _219  and  _220
REMARK   79  A    between atoms: _219  and  _222
REMARK   80  A    between atoms: _222  and  _223
REMARK   81  A    between atoms: _228  and  _229
REMARK   82  A    between atoms: _231  and  _233
REMARK   83  A    between atoms: _233  and  _234
REMARK   84  A    between atoms: _233  and  _236
REMARK   85  A    between atoms: _236  and  _237
REMARK   86  A    between atoms: _247  and  _249
REMARK   87  A    between atoms: _249  and  _250
REMARK   88  A    between atoms: _249  and  _252
REMARK   89  A    between atoms: _252  and  _253
REMARK   90  A    between atoms: _258  and  _260
REMARK   91  A    between atoms: _260  and  _261
REMARK   92  A    between atoms: _260  and  _263
REMARK   93  A    between atoms: _263  and  _264
REMARK   94  A    between atoms: _268  and  ZN_358
REMARK   95  A    between atoms: _269  and  _271
REMARK   96  A    between atoms: _271  and  _272
REMARK   97  A    between atoms: _271  and  _274
REMARK   98  A    between atoms: _274  and  _275
REMARK   99  A    between atoms: _278  and  _280
REMARK  100  A    between atoms: _280  and  _281
REMARK  101  A    between atoms: _283  and  _285
REMARK  102  A    between atoms: _285  and  _286
REMARK  103  A    between atoms: _285  and  _288
REMARK  104  A    between atoms: _288  and  _289
REMARK  105  A    between atoms: _292  and  _294
REMARK  106  A    between atoms: _294  and  _295
REMARK  107  A    between atoms: _294  and  _297
REMARK  108  A    between atoms: _297  and  _298
REMARK  109  A    between atoms: _301  and  _303
REMARK  110  A    between atoms: _303  and  _304
REMARK  111  A    between atoms: _307  and  _309
REMARK  112  A    between atoms: _309  and  _310
REMARK  113  A    between atoms: _313  and  _315
REMARK  114  A    between atoms: _315  and  _316
REMARK  115  A    between atoms: _315  and  _318
REMARK  116  A    between atoms: _318  and  _319
REMARK  117  A    between atoms: _324  and  _325
REMARK  118  A    between atoms: _327  and  _329
REMARK  119  A    between atoms: _329  and  _330
REMARK  120  A    between atoms: _329  and  _332
REMARK  121  A    between atoms: _332  and  _333
REMARK  122  A    between atoms: _333  and  _334
REMARK  123  A    between atoms: _334  and  _335
REMARK  124  A    between atoms: _344  and  _346
REMARK  125  A    between atoms: _346  and  _347
REMARK  126  A    between atoms: _349  and  _351
REMARK  127  A    between atoms: _351  and  _352
REMARK  128  A    between atoms: _351  and  _354
REMARK  129  A    between atoms: _354  and  _355
REMARK                            x       y       z     vdW  Elec       q    Type
REMARK                         _______ _______ _______ _____ _____    ______ ____
ROOT
ATOM      1  CA  ASP A   2      33.933  64.063  15.517  0.00  0.00    +0.160 C 
ENDROOT
BRANCH   1   4
ATOM      2  C   ASP A   1      33.269  61.992  16.623  0.00  0.00    +0.239 C 
ATOM      3  O   ASP A   1      34.456  61.672  16.772  0.00  0.00    -0.274 OA
ATOM      4  N   ASP A   2      32.909  63.156  16.060  0.00  0.00    -0.297 N 
ATOM      5  H   ASP A   2      31.904  63.418  16.007  0.00  0.00    +0.150 HD
BRANCH   2   6
ATOM      6  CA  ASP A   1      32.149  61.051  16.983  0.00  0.00    +0.156 C 
BRANCH   6   7
ATOM      7  N   ASP A   1      32.761  59.922  17.694  0.00  0.00    -0.238 NA
ATOM      8  H   ASP A   1      33.770  59.982  17.937  0.00  0.00    +0.142 HD
ENDBRANCH   6   7
BRANCH   6   9
ATOM      9  CB  ASP A   1      31.053  61.709  17.850  0.00  0.00    +0.140 C 
BRANCH   9  10
ATOM     10  CG  ASP A   1      29.978  62.498  17.170  0.00  0.00    +0.367 C 
ATOM     11  OD2 ASP A   1      28.928  62.743  17.834  0.00  0.00    -0.246 OA
ATOM     12  OD1 ASP A   1      30.140  62.948  16.010  0.00  0.00    -0.246 OA
ENDBRANCH   9  10
ENDBRANCH   6   9
ENDBRANCH   2   6
ENDBRANCH   1   4
BRANCH   1  13
ATOM     13  C   ASP A   2      34.780  64.658  16.631  0.00  0.00    +0.241 C 
ATOM     14  O   ASP A   2      34.251  65.209  17.629  0.00  0.00    -0.273 OA
ATOM     15  N   PHE A   3      36.082  64.546  16.475  0.00  0.00    -0.298 N 
ATOM     16  H   PHE A   3      36.428  64.030  15.641  0.00  0.00    +0.150 HD
BRANCH  15  17
ATOM     17  CA  PHE A   3      37.083  65.102  17.402  0.00  0.00    +0.141 C 
BRANCH  17  18
ATOM     18  C   PHE A   3      36.767  64.720  18.832  0.00  0.00    +0.227 C 
ATOM     19  O   PHE A   3      36.997  65.479  19.790  0.00  0.00    -0.286 OA
ENDBRANCH  17  18
BRANCH  17  20
ATOM     20  CB  PHE A   3      37.176  66.646  17.206  0.00  0.00    +0.054 C 
BRANCH  20  21
ATOM     21  CG  PHE A   3      37.753  67.042  15.850  0.00  0.00    -0.020 A 
ATOM     22  CD2 PHE A   3      39.143  67.038  15.639  0.00  0.00    -0.004 A 
ATOM     23  CE2 PHE A   3      39.672  67.387  14.382  0.00  0.00    -0.000 A 
ATOM     24  CZ  PHE A   3      38.832  67.790  13.389  0.00  0.00    -0.000 A 
ATOM     25  CE1 PHE A   3      37.455  67.770  13.546  0.00  0.00    -0.000 A 
ATOM     26  CD1 PHE A   3      36.930  67.411  14.785  0.00  0.00    -0.004 A 
ENDBRANCH  20  21
ENDBRANCH  17  20
ENDBRANCH  15  17
ENDBRANCH   1  13
BRANCH   1  27
ATOM     27  CB  ASP A   2      33.222  65.199  14.746  0.00  0.00    +0.143 C 
BRANCH  27  28
ATOM     28  CG  ASP A   2      32.579  64.712  13.450  0.00  0.00    +0.367 C 
ATOM     29  OD2 ASP A   2      32.627  63.495  13.197  0.00  0.00    -0.246 OA
ATOM     30  OD1 ASP A   2      32.093  65.581  12.672  0.00  0.00    -0.246 OA
ENDBRANCH  27  28
ENDBRANCH   1  27
TORSDOF 12
REMARK  Name = ../refined-set-2016/3dx1/3dx1_pocket.pdb
REMARK  129 active torsions:
REMARK  status: ('A' for Active; 'I' for Inactive)
REMARK    1  A    between atoms: _1  and  _3
REMARK    2  A    between atoms: _14  and  _17
REMARK    3  A    between atoms: _17  and  _18
REMARK    4  A    between atoms: _25  and  _26
REMARK    5  A    between atoms: _33  and  _34
REMARK    6  A    between atoms: _39  and  _41
REMARK    7  A    between atoms: _41  and  _42
REMARK    8  A    between atoms: _44  and  _46
REMARK    9  A    between atoms: _46  and  _47
REMARK   10  A    between atoms: _46  and  _49
REMARK   11  A    between atoms: _49  and  _50
REMARK   12  A    between atoms: _60  and  _62
REMARK   13  A    between atoms: _62  and  _63
REMARK   14  A    between atoms: _62  and  _65
REMARK   15  A    between atoms: _65  and  _66
REMARK   16  A    between atoms: _69  and  _71
REMARK   17  A    between atoms: _71  and  _72
REMARK   18  A    between atoms: _71  and  _74
REMARK   19  A    between atoms: _74  and  _75
REMARK   20  A    between atoms: _80  and  _81
REMARK   21  A    between atoms: _83  and  _85
REMARK   22  A    between atoms: _85  and  _86
REMARK   23  A    between atoms: _85  and  _88
REMARK   24  A    between atoms: _88  and  _89
REMARK   25  A    between atoms: _89  and  _90
REMARK   26  A    between atoms: _93  and  _95
REMARK   27  A    between atoms: _95  and  _96
REMARK   28  A    between atoms: _95  and  _98
REMARK   29  A    between atoms: _98  and  _99
REMARK   30  A    between atoms: _99  and  _100
REMARK   31  A    between atoms: _102  and  _104
REMARK   32  A    between atoms: _104  and  _105
REMARK   33  A    between atoms: _104  and  _107
REMARK   34  A    between atoms: _107  and  _108
REMARK   35  A    between atoms: _111  and  _113
REMARK   36  A    between atoms: _113  and  _114
REMARK   37  A    between atoms: _113  and  _116
REMARK   38  A    between atoms: _116  and  _117
REMARK   39  A    between atoms: _117  and  _119
REMARK   40  A    between atoms: _119  and  ZN_358
REMARK   41  A    between atoms: _121  and  _122
REMARK   42  A    between atoms: _127  and  _129
REMARK   43  A    between atoms: _129  and  _130
REMARK   44  A    between atoms: _129  and  _132
REMARK   45  A    between atoms: _132  and  _133
REMARK   46  A    between atoms: _139  and  _141
REMARK   47  A    between atoms: _141  and  _142
REMARK   48  A    between atoms: _141  and  _144
REMARK   49  A    between atoms: _144  and  _145
REMARK   50  A    between atoms: _145  and  _146
REMARK   51  A    between atoms: _146  and  _147
REMARK   52  A    between atoms: _156  and  _158
REMARK   53  A    between atoms: _158  and  _159
REMARK   54  A    between atoms: _158  and  _161
REMARK   55  A    between atoms: _161  and  _162
REMARK   56  A    between atoms: _164  and  _166
REMARK   57  A    between atoms: _166  and  _167
REMARK   58  A    between atoms: _166  and  _169
REMARK   59  A    between atoms: _169  and  _170
REMARK   60  A    between atoms: _175  and  _176
REMARK   61  A    between atoms: _178  and  _180
REMARK   62  A    between atoms: _180  and  _181
REMARK   63  A    between atoms: _180  and  _183
REMARK   64  A    between atoms: _183  and  _184
REMARK   65  A    between atoms: _187  and  _189
REMARK   66  A    between atoms: _189  and  _190
REMARK   67  A    between atoms: _189  and  _192
REMARK   68  A    between atoms: _192  and  _193
REMARK   69  A    between atoms: _196  and  _198
REMARK   70  A    between atoms: _198  and  _199
REMARK   71  A    between atoms: _198  and  _201
REMARK   72  A    between atoms: _201  and  _202
REMARK   73  A    between atoms: _205  and  _207
REMARK   74  A    between atoms: _207  and  _208
REMARK   75  A    between atoms: _207  and  _210
REMARK   76  A    between atoms: _210  and  _211
REMARK   77  A    between atoms: _217  and  _219
REMARK   78  A    between atoms: _219  and  _220
REMARK   79  A    between atoms: _219  and  _222
REMARK   80  A    between atoms: _222  and  _223
REMARK   81  A    between atoms: _228  and  _229
REMARK   82  A    between atoms: _231  and  _233
REMARK   83  A    between atoms: _233  and  _234
REMARK   84  A    between atoms: _233  and  _236
REMARK   85  A    between atoms: _236  and  _237
REMARK   86  A    between atoms: _247  and  _249
REMARK   87  A    between atoms: _249  and  _250
REMARK   88  A    between atoms: _249  and  _252
REMARK   89  A    between atoms: _252  and  _253
REMARK   90  A    between atoms: _258  and  _260
REMARK   91  A    between atoms: _260  and  _261
REMARK   92  A    between atoms: _260  and  _263
REMARK   93  A    between atoms: _263  and  _264
REMARK   94  A    between atoms: _268  and  ZN_358
REMARK   95  A    between atoms: _269  and  _271
REMARK   96  A    between atoms: _271  and  _272
REMARK   97  A    between atoms: _271  and  _274
REMARK   98  A    between atoms: _274  and  _275
REMARK   99  A    between atoms: _278  and  _280
REMARK  100  A    between atoms: _280  and  _281
REMARK  101  A    between atoms: _283  and  _285
REMARK  102  A    between atoms: _285  and  _286
REMARK  103  A    between atoms: _285  and  _288
REMARK  104  A    between atoms: _288  and  _289
REMARK  105  A    between atoms: _292  and  _294
REMARK  106  A    between atoms: _294  and  _295
REMARK  107  A    between atoms: _294  and  _297
REMARK  108  A    between atoms: _297  and  _298
REMARK  109  A    between atoms: _301  and  _303
REMARK  110  A    between atoms: _303  and  _304
REMARK  111  A    between atoms: _307  and  _309
REMARK  112  A    between atoms: _309  and  _310
REMARK  113  A    between atoms: _313  and  _315
REMARK  114  A    between atoms: _315  and  _316
REMARK  115  A    between atoms: _315  and  _318
REMARK  116  A    between atoms: _318  and  _319
REMARK  117  A    between atoms: _324  and  _325
REMARK  118  A    between atoms: _327  and  _329
REMARK  119  A    between atoms: _329  and  _330
REMARK  120  A    between atoms: _329  and  _332
REMARK  121  A    between atoms: _332  and  _333
REMARK  122  A    between atoms: _333  and  _334
REMARK  123  A    between atoms: _334  and  _335
REMARK  124  A    between atoms: _344  and  _346
REMARK  125  A    between atoms: _346  and  _347
REMARK  126  A    between atoms: _349  and  _351
REMARK  127  A    between atoms: _351  and  _352
REMARK  128  A    between atoms: _351  and  _354
REMARK  129  A    between atoms: _354  and  _355
REMARK                            x       y       z     vdW  Elec       q    Type
REMARK                         _______ _______ _______ _____ _____    ______ ____
ROOT
ATOM      1  CG  TYR A   1      24.954  59.651   0.901  0.00  0.00    -0.020 A 
ATOM      2  CD2 TYR A   1      24.496  58.576   1.677  0.00  0.00    -0.001 A 
ATOM      3  CE2 TYR A   1      24.348  58.708   3.049  0.00  0.00    +0.036 A 
ATOM      4  CZ  TYR A   1      24.706  59.912   3.669  0.00  0.00    +0.134 A 
ATOM      5  CE1 TYR A   1      25.169  60.959   2.913  0.00  0.00    +0.036 A 
ATOM      6  CD1 TYR A   1      25.278  60.835   1.528  0.00  0.00    -0.001 A 
ENDROOT
BRANCH   4   7
ATOM      7  OH  TYR A   1      24.683  60.092   5.014  0.00  0.00    -0.506 OA
ATOM      8  HH  TYR A   1      24.332  59.275   5.449  0.00  0.00    +0.292 HD
ENDBRANCH   4   7
BRANCH   1   9
ATOM      9  CB  TYR A   1      25.120  59.546  -0.587  0.00  0.00    +0.051 C 
BRANCH   9  10
ATOM     10  CA  TYR A   1      23.934  59.186  -1.442  0.00  0.00    +0.137 C 
BRANCH  10  11
ATOM     11  N   TYR A   1      24.382  59.286  -2.842  0.00  0.00    -0.239 NA
ATOM     12  H   TYR A   1      25.349  59.613  -3.039  0.00  0.00    +0.142 HD
ENDBRANCH  10  11
BRANCH  10  13
ATOM     13  C   TYR A   1      22.827  60.193  -1.153  0.00  0.00    +0.224 C 
ATOM     14  O   TYR A   1      22.864  61.345  -1.579  0.00  0.00    -0.287 OA
ENDBRANCH  10  13
ENDBRANCH   9  10
ENDBRANCH   1   9
TORSDOF 5
REMARK  Name = ../refined-set-2016/3dx1/3dx1_pocket.pdb
REMARK  129 active torsions:
REMARK  status: ('A' for Active; 'I' for Inactive)
REMARK    1  A    between atoms: _1  and  _3
REMARK    2  A    between atoms: _14  and  _17
REMARK    3  A    between atoms: _17  and  _18
REMARK    4  A    between atoms: _25  and  _26
REMARK    5  A    between atoms: _33  and  _34
REMARK    6  A    between atoms: _39  and  _41
REMARK    7  A    between atoms: _41  and  _42
REMARK    8  A    between atoms: _44  and  _46
REMARK    9  A    between atoms: _46  and  _47
REMARK   10  A    between atoms: _46  and  _49
REMARK   11  A    between atoms: _49  and  _50
REMARK   12  A    between atoms: _60  and  _62
REMARK   13  A    between atoms: _62  and  _63
REMARK   14  A    between atoms: _62  and  _65
REMARK   15  A    between atoms: _65  and  _66
REMARK   16  A    between atoms: _69  and  _71
REMARK   17  A    between atoms: _71  and  _72
REMARK   18  A    between atoms: _71  and  _74
REMARK   19  A    between atoms: _74  and  _75
REMARK   20  A    between atoms: _80  and  _81
REMARK   21  A    between atoms: _83  and  _85
REMARK   22  A    between atoms: _85  and  _86
REMARK   23  A    between atoms: _85  and  _88
REMARK   24  A    between atoms: _88  and  _89
REMARK   25  A    between atoms: _89  and  _90
REMARK   26  A    between atoms: _93  and  _95
REMARK   27  A    between atoms: _95  and  _96
REMARK   28  A    between atoms: _95  and  _98
REMARK   29  A    between atoms: _98  and  _99
REMARK   30  A    between atoms: _99  and  _100
REMARK   31  A    between atoms: _102  and  _104
REMARK   32  A    between atoms: _104  and  _105
REMARK   33  A    between atoms: _104  and  _107
REMARK   34  A    between atoms: _107  and  _108
REMARK   35  A    between atoms: _111  and  _113
REMARK   36  A    between atoms: _113  and  _114
REMARK   37  A    between atoms: _113  and  _116
REMARK   38  A    between atoms: _116  and  _117
REMARK   39  A    between atoms: _117  and  _119
REMARK   40  A    between atoms: _119  and  ZN_358
REMARK   41  A    between atoms: _121  and  _122
REMARK   42  A    between atoms: _127  and  _129
REMARK   43  A    between atoms: _129  and  _130
REMARK   44  A    between atoms: _129  and  _132
REMARK   45  A    between atoms: _132  and  _133
REMARK   46  A    between atoms: _139  and  _141
REMARK   47  A    between atoms: _141  and  _142
REMARK   48  A    between atoms: _141  and  _144
REMARK   49  A    between atoms: _144  and  _145
REMARK   50  A    between atoms: _145  and  _146
REMARK   51  A    between atoms: _146  and  _147
REMARK   52  A    between atoms: _156  and  _158
REMARK   53  A    between atoms: _158  and  _159
REMARK   54  A    between atoms: _158  and  _161
REMARK   55  A    between atoms: _161  and  _162
REMARK   56  A    between atoms: _164  and  _166
REMARK   57  A    between atoms: _166  and  _167
REMARK   58  A    between atoms: _166  and  _169
REMARK   59  A    between atoms: _169  and  _170
REMARK   60  A    between atoms: _175  and  _176
REMARK   61  A    between atoms: _178  and  _180
REMARK   62  A    between atoms: _180  and  _181
REMARK   63  A    between atoms: _180  and  _183
REMARK   64  A    between atoms: _183  and  _184
REMARK   65  A    between atoms: _187  and  _189
REMARK   66  A    between atoms: _189  and  _190
REMARK   67  A    between atoms: _189  and  _192
REMARK   68  A    between atoms: _192  and  _193
REMARK   69  A    between atoms: _196  and  _198
REMARK   70  A    between atoms: _198  and  _199
REMARK   71  A    between atoms: _198  and  _201
REMARK   72  A    between atoms: _201  and  _202
REMARK   73  A    between atoms: _205  and  _207
REMARK   74  A    between atoms: _207  and  _208
REMARK   75  A    between atoms: _207  and  _210
REMARK   76  A    between atoms: _210  and  _211
REMARK   77  A    between atoms: _217  and  _219
REMARK   78  A    between atoms: _219  and  _220
REMARK   79  A    between atoms: _219  and  _222
REMARK   80  A    between atoms: _222  and  _223
REMARK   81  A    between atoms: _228  and  _229
REMARK   82  A    between atoms: _231  and  _233
REMARK   83  A    between atoms: _233  and  _234
REMARK   84  A    between atoms: _233  and  _236
REMARK   85  A    between atoms: _236  and  _237
REMARK   86  A    between atoms: _247  and  _249
REMARK   87  A    between atoms: _249  and  _250
REMARK   88  A    between atoms: _249  and  _252
REMARK   89  A    between atoms: _252  and  _253
REMARK   90  A    between atoms: _258  and  _260
REMARK   91  A    between atoms: _260  and  _261
REMARK   92  A    between atoms: _260  and  _263
REMARK   93  A    between atoms: _263  and  _264
REMARK   94  A    between atoms: _268  and  ZN_358
REMARK   95  A    between atoms: _269  and  _271
REMARK   96  A    between atoms: _271  and  _272
REMARK   97  A    between atoms: _271  and  _274
REMARK   98  A    between atoms: _274  and  _275
REMARK   99  A    between atoms: _278  and  _280
REMARK  100  A    between atoms: _280  and  _281
REMARK  101  A    between atoms: _283  and  _285
REMARK  102  A    between atoms: _285  and  _286
REMARK  103  A    between atoms: _285  and  _288
REMARK  104  A    between atoms: _288  and  _289
REMARK  105  A    between atoms: _292  and  _294
REMARK  106  A    between atoms: _294  and  _295
REMARK  107  A    between atoms: _294  and  _297
REMARK  108  A    between atoms: _297  and  _298
REMARK  109  A    between atoms: _301  and  _303
REMARK  110  A    between atoms: _303  and  _304
REMARK  111  A    between atoms: _307  and  _309
REMARK  112  A    between atoms: _309  and  _310
REMARK  113  A    between atoms: _313  and  _315
REMARK  114  A    between atoms: _315  and  _316
REMARK  115  A    between atoms: _315  and  _318
REMARK  116  A    between atoms: _318  and  _319
REMARK  117  A    between atoms: _324  and  _325
REMARK  118  A    between atoms: _327  and  _329
REMARK  119  A    between atoms: _329  and  _330
REMARK  120  A    between atoms: _329  and  _332
REMARK  121  A    between atoms: _332  and  _333
REMARK  122  A    between atoms: _333  and  _334
REMARK  123  A    between atoms: _334  and  _335
REMARK  124  A    between atoms: _344  and  _346
REMARK  125  A    between atoms: _346  and  _347
REMARK  126  A    between atoms: _349  and  _351
REMARK  127  A    between atoms: _351  and  _352
REMARK  128  A    between atoms: _351  and  _354
REMARK  129  A    between atoms: _354  and  _355
REMARK                            x       y       z     vdW  Elec       q    Type
REMARK                         _______ _______ _______ _____ _____    ______ ____
ROOT
ATOM      1  CG  TRP A   1      24.687  64.245   0.494  0.00  0.00    -0.002 A 
ATOM      2  CD2 TRP A   1      25.444  64.514   1.675  0.00  0.00    +0.013 A 
ATOM      3  CE2 TRP A   1      24.576  64.455   2.771  0.00  0.00    +0.056 A 
ATOM      4  CZ2 TRP A   1      24.998  64.668   4.089  0.00  0.00    +0.017 A 
ATOM      5  CH2 TRP A   1      26.338  64.925   4.271  0.00  0.00    +0.001 A 
ATOM      6  CZ3 TRP A   1      27.229  64.981   3.189  0.00  0.00    +0.000 A 
ATOM      7  NE1 TRP A   1      23.321  64.167   2.262  0.00  0.00    -0.352 N 
ATOM      8  HE1 TRP A   1      22.453  64.067   2.826  0.00  0.00    +0.166 HD
ATOM      9  CE3 TRP A   1      26.820  64.777   1.917  0.00  0.00    +0.001 A 
ATOM     10  CD1 TRP A   1      23.400  64.034   0.897  0.00  0.00    +0.068 A 
ENDROOT
BRANCH   1  11
ATOM     11  CB  TRP A   1      25.236  64.180  -0.912  0.00  0.00    +0.053 C 
BRANCH  11  12
ATOM     12  CA  TRP A   1      24.387  64.855  -1.992  0.00  0.00    +0.137 C 
BRANCH  12  13
ATOM     13  N   TRP A   1      23.124  64.123  -2.123  0.00  0.00    -0.239 NA
ATOM     14  H   TRP A   1      23.109  63.091  -1.993  0.00  0.00    +0.142 HD
ENDBRANCH  12  13
BRANCH  12  15
ATOM     15  C   TRP A   1      25.118  64.885  -3.336  0.00  0.00    +0.224 C 
ATOM     16  O   TRP A   1      26.263  64.414  -3.488  0.00  0.00    -0.287 OA
ENDBRANCH  12  15
ENDBRANCH  11  12
ENDBRANCH   1  11
TORSDOF 4
REMARK  Name = ../refined-set-2016/3dx1/3dx1_pocket.pdb
REMARK  129 active torsions:
REMARK  status: ('A' for Active; 'I' for Inactive)
REMARK    1  A    between atoms: _1  and  _3
REMARK    2  A    between atoms: _14  and  _17
REMARK    3  A    between atoms: _17  and  _18
REMARK    4  A    between atoms: _25  and  _26
REMARK    5  A    between atoms: _33  and  _34
REMARK    6  A    between atoms: _39  and  _41
REMARK    7  A    between atoms: _41  and  _42
REMARK    8  A    between atoms: _44  and  _46
REMARK    9  A    between atoms: _46  and  _47
REMARK   10  A    between atoms: _46  and  _49
REMARK   11  A    between atoms: _49  and  _50
REMARK   12  A    between atoms: _60  and  _62
REMARK   13  A    between atoms: _62  and  _63
REMARK   14  A    between atoms: _62  and  _65
REMARK   15  A    between atoms: _65  and  _66
REMARK   16  A    between atoms: _69  and  _71
REMARK   17  A    between atoms: _71  and  _72
REMARK   18  A    between atoms: _71  and  _74
REMARK   19  A    between atoms: _74  and  _75
REMARK   20  A    between atoms: _80  and  _81
REMARK   21  A    between atoms: _83  and  _85
REMARK   22  A    between atoms: _85  and  _86
REMARK   23  A    between atoms: _85  and  _88
REMARK   24  A    between atoms: _88  and  _89
REMARK   25  A    between atoms: _89  and  _90
REMARK   26  A    between atoms: _93  and  _95
REMARK   27  A    between atoms: _95  and  _96
REMARK   28  A    between atoms: _95  and  _98
REMARK   29  A    between atoms: _98  and  _99
REMARK   30  A    between atoms: _99  and  _100
REMARK   31  A    between atoms: _102  and  _104
REMARK   32  A    between atoms: _104  and  _105
REMARK   33  A    between atoms: _104  and  _107
REMARK   34  A    between atoms: _107  and  _108
REMARK   35  A    between atoms: _111  and  _113
REMARK   36  A    between atoms: _113  and  _114
REMARK   37  A    between atoms: _113  and  _116
REMARK   38  A    between atoms: _116  and  _117
REMARK   39  A    between atoms: _117  and  _119
REMARK   40  A    between atoms: _119  and  ZN_358
REMARK   41  A    between atoms: _121  and  _122
REMARK   42  A    between atoms: _127  and  _129
REMARK   43  A    between atoms: _129  and  _130
REMARK   44  A    between atoms: _129  and  _132
REMARK   45  A    between atoms: _132  and  _133
REMARK   46  A    between atoms: _139  and  _141
REMARK   47  A    between atoms: _141  and  _142
REMARK   48  A    between atoms: _141  and  _144
REMARK   49  A    between atoms: _144  and  _145
REMARK   50  A    between atoms: _145  and  _146
REMARK   51  A    between atoms: _146  and  _147
REMARK   52  A    between atoms: _156  and  _158
REMARK   53  A    between atoms: _158  and  _159
REMARK   54  A    between atoms: _158  and  _161
REMARK   55  A    between atoms: _161  and  _162
REMARK   56  A    between atoms: _164  and  _166
REMARK   57  A    between atoms: _166  and  _167
REMARK   58  A    between atoms: _166  and  _169
REMARK   59  A    between atoms: _169  and  _170
REMARK   60  A    between atoms: _175  and  _176
REMARK   61  A    between atoms: _178  and  _180
REMARK   62  A    between atoms: _180  and  _181
REMARK   63  A    between atoms: _180  and  _183
REMARK   64  A    between atoms: _183  and  _184
REMARK   65  A    between atoms: _187  and  _189
REMARK   66  A    between atoms: _189  and  _190
REMARK   67  A    between atoms: _189  and  _192
REMARK   68  A    between atoms: _192  and  _193
REMARK   69  A    between atoms: _196  and  _198
REMARK   70  A    between atoms: _198  and  _199
REMARK   71  A    between atoms: _198  and  _201
REMARK   72  A    between atoms: _201  and  _202
REMARK   73  A    between atoms: _205  and  _207
REMARK   74  A    between atoms: _207  and  _208
REMARK   75  A    between atoms: _207  and  _210
REMARK   76  A    between atoms: _210  and  _211
REMARK   77  A    between atoms: _217  and  _219
REMARK   78  A    between atoms: _219  and  _220
REMARK   79  A    between atoms: _219  and  _222
REMARK   80  A    between atoms: _222  and  _223
REMARK   81  A    between atoms: _228  and  _229
REMARK   82  A    between atoms: _231  and  _233
REMARK   83  A    between atoms: _233  and  _234
REMARK   84  A    between atoms: _233  and  _236
REMARK   85  A    between atoms: _236  and  _237
REMARK   86  A    between atoms: _247  and  _249
REMARK   87  A    between atoms: _249  and  _250
REMARK   88  A    between atoms: _249  and  _252
REMARK   89  A    between atoms: _252  and  _253
REMARK   90  A    between atoms: _258  and  _260
REMARK   91  A    between atoms: _260  and  _261
REMARK   92  A    between atoms: _260  and  _263
REMARK   93  A    between atoms: _263  and  _264
REMARK   94  A    between atoms: _268  and  ZN_358
REMARK   95  A    between atoms: _269  and  _271
REMARK   96  A    between atoms: _271  and  _272
REMARK   97  A    between atoms: _271  and  _274
REMARK   98  A    between atoms: _274  and  _275
REMARK   99  A    between atoms: _278  and  _280
REMARK  100  A    between atoms: _280  and  _281
REMARK  101  A    between atoms: _283  and  _285
REMARK  102  A    between atoms: _285  and  _286
REMARK  103  A    between atoms: _285  and  _288
REMARK  104  A    between atoms: _288  and  _289
REMARK  105  A    between atoms: _292  and  _294
REMARK  106  A    between atoms: _294  and  _295
REMARK  107  A    between atoms: _294  and  _297
REMARK  108  A    between atoms: _297  and  _298
REMARK  109  A    between atoms: _301  and  _303
REMARK  110  A    between atoms: _303  and  _304
REMARK  111  A    between atoms: _307  and  _309
REMARK  112  A    between atoms: _309  and  _310
REMARK  113  A    between atoms: _313  and  _315
REMARK  114  A    between atoms: _315  and  _316
REMARK  115  A    between atoms: _315  and  _318
REMARK  116  A    between atoms: _318  and  _319
REMARK  117  A    between atoms: _324  and  _325
REMARK  118  A    between atoms: _327  and  _329
REMARK  119  A    between atoms: _329  and  _330
REMARK  120  A    between atoms: _329  and  _332
REMARK  121  A    between atoms: _332  and  _333
REMARK  122  A    between atoms: _333  and  _334
REMARK  123  A    between atoms: _334  and  _335
REMARK  124  A    between atoms: _344  and  _346
REMARK  125  A    between atoms: _346  and  _347
REMARK  126  A    between atoms: _349  and  _351
REMARK  127  A    between atoms: _351  and  _352
REMARK  128  A    between atoms: _351  and  _354
REMARK  129  A    between atoms: _354  and  _355
REMARK                            x       y       z     vdW  Elec       q    Type
REMARK                         _______ _______ _______ _____ _____    ______ ____
ROOT
ATOM      1  CA  THR A   1      34.624  67.972  -2.402  0.00  0.00    +0.160 C 
ENDROOT
BRANCH   1   2
ATOM      2  N   THR A   1      36.098  67.867  -2.370  0.00  0.00    -0.237 NA
ATOM      3  H   THR A   1      36.562  67.464  -1.531  0.00  0.00    +0.142 HD
ENDBRANCH   1   2
BRANCH   1   4
ATOM      4  CB  THR A   1      34.063  67.281  -1.179  0.00  0.00    +0.134 C 
ATOM      5  CG2 THR A   1      34.428  65.810  -1.094  0.00  0.00    +0.034 C 
BRANCH   4   6
ATOM      6  OG1 THR A   1      34.605  68.001  -0.072  0.00  0.00    -0.383 OA
ATOM      7  HG1 THR A   1      34.278  67.601   0.772  0.00  0.00    +0.210 HD
ENDBRANCH   4   6
ENDBRANCH   1   4
BRANCH   1   8
ATOM      8  C   THR A   1      34.109  69.396  -2.392  0.00  0.00    +0.227 C 
ATOM      9  O   THR A   1      32.931  69.598  -2.752  0.00  0.00    -0.287 OA
ENDBRANCH   1   8
TORSDOF 4
REMARK  Name = ../refined-set-2016/3dx1/3dx1_pocket.pdb
REMARK  129 active torsions:
REMARK  status: ('A' for Active; 'I' for Inactive)
REMARK    1  A    between atoms: _1  and  _3
REMARK    2  A    between atoms: _14  and  _17
REMARK    3  A    between atoms: _17  and  _18
REMARK    4  A    between atoms: _25  and  _26
REMARK    5  A    between atoms: _33  and  _34
REMARK    6  A    between atoms: _39  and  _41
REMARK    7  A    between atoms: _41  and  _42
REMARK    8  A    between atoms: _44  and  _46
REMARK    9  A    between atoms: _46  and  _47
REMARK   10  A    between atoms: _46  and  _49
REMARK   11  A    between atoms: _49  and  _50
REMARK   12  A    between atoms: _60  and  _62
REMARK   13  A    between atoms: _62  and  _63
REMARK   14  A    between atoms: _62  and  _65
REMARK   15  A    between atoms: _65  and  _66
REMARK   16  A    between atoms: _69  and  _71
REMARK   17  A    between atoms: _71  and  _72
REMARK   18  A    between atoms: _71  and  _74
REMARK   19  A    between atoms: _74  and  _75
REMARK   20  A    between atoms: _80  and  _81
REMARK   21  A    between atoms: _83  and  _85
REMARK   22  A    between atoms: _85  and  _86
REMARK   23  A    between atoms: _85  and  _88
REMARK   24  A    between atoms: _88  and  _89
REMARK   25  A    between atoms: _89  and  _90
REMARK   26  A    between atoms: _93  and  _95
REMARK   27  A    between atoms: _95  and  _96
REMARK   28  A    between atoms: _95  and  _98
REMARK   29  A    between atoms: _98  and  _99
REMARK   30  A    between atoms: _99  and  _100
REMARK   31  A    between atoms: _102  and  _104
REMARK   32  A    between atoms: _104  and  _105
REMARK   33  A    between atoms: _104  and  _107
REMARK   34  A    between atoms: _107  and  _108
REMARK   35  A    between atoms: _111  and  _113
REMARK   36  A    between atoms: _113  and  _114
REMARK   37  A    between atoms: _113  and  _116
REMARK   38  A    between atoms: _116  and  _117
REMARK   39  A    between atoms: _117  and  _119
REMARK   40  A    between atoms: _119  and  ZN_358
REMARK   41  A    between atoms: _121  and  _122
REMARK   42  A    between atoms: _127  and  _129
REMARK   43  A    between atoms: _129  and  _130
REMARK   44  A    between atoms: _129  and  _132
REMARK   45  A    between atoms: _132  and  _133
REMARK   46  A    between atoms: _139  and  _141
REMARK   47  A    between atoms: _141  and  _142
REMARK   48  A    between atoms: _141  and  _144
REMARK   49  A    between atoms: _144  and  _145
REMARK   50  A    between atoms: _145  and  _146
REMARK   51  A    between atoms: _146  and  _147
REMARK   52  A    between atoms: _156  and  _158
REMARK   53  A    between atoms: _158  and  _159
REMARK   54  A    between atoms: _158  and  _161
REMARK   55  A    between atoms: _161  and  _162
REMARK   56  A    between atoms: _164  and  _166
REMARK   57  A    between atoms: _166  and  _167
REMARK   58  A    between atoms: _166  and  _169
REMARK   59  A    between atoms: _169  and  _170
REMARK   60  A    between atoms: _175  and  _176
REMARK   61  A    between atoms: _178  and  _180
REMARK   62  A    between atoms: _180  and  _181
REMARK   63  A    between atoms: _180  and  _183
REMARK   64  A    between atoms: _183  and  _184
REMARK   65  A    between atoms: _187  and  _189
REMARK   66  A    between atoms: _189  and  _190
REMARK   67  A    between atoms: _189  and  _192
REMARK   68  A    between atoms: _192  and  _193
REMARK   69  A    between atoms: _196  and  _198
REMARK   70  A    between atoms: _198  and  _199
REMARK   71  A    between atoms: _198  and  _201
REMARK   72  A    between atoms: _201  and  _202
REMARK   73  A    between atoms: _205  and  _207
REMARK   74  A    between atoms: _207  and  _208
REMARK   75  A    between atoms: _207  and  _210
REMARK   76  A    between atoms: _210  and  _211
REMARK   77  A    between atoms: _217  and  _219
REMARK   78  A    between atoms: _219  and  _220
REMARK   79  A    between atoms: _219  and  _222
REMARK   80  A    between atoms: _222  and  _223
REMARK   81  A    between atoms: _228  and  _229
REMARK   82  A    between atoms: _231  and  _233
REMARK   83  A    between atoms: _233  and  _234
REMARK   84  A    between atoms: _233  and  _236
REMARK   85  A    between atoms: _236  and  _237
REMARK   86  A    between atoms: _247  and  _249
REMARK   87  A    between atoms: _249  and  _250
REMARK   88  A    between atoms: _249  and  _252
REMARK   89  A    between atoms: _252  and  _253
REMARK   90  A    between atoms: _258  and  _260
REMARK   91  A    between atoms: _260  and  _261
REMARK   92  A    between atoms: _260  and  _263
REMARK   93  A    between atoms: _263  and  _264
REMARK   94  A    between atoms: _268  and  ZN_358
REMARK   95  A    between atoms: _269  and  _271
REMARK   96  A    between atoms: _271  and  _272
REMARK   97  A    between atoms: _271  and  _274
REMARK   98  A    between atoms: _274  and  _275
REMARK   99  A    between atoms: _278  and  _280
REMARK  100  A    between atoms: _280  and  _281
REMARK  101  A    between atoms: _283  and  _285
REMARK  102  A    between atoms: _285  and  _286
REMARK  103  A    between atoms: _285  and  _288
REMARK  104  A    between atoms: _288  and  _289
REMARK  105  A    between atoms: _292  and  _294
REMARK  106  A    between atoms: _294  and  _295
REMARK  107  A    between atoms: _294  and  _297
REMARK  108  A    between atoms: _297  and  _298
REMARK  109  A    between atoms: _301  and  _303
REMARK  110  A    between atoms: _303  and  _304
REMARK  111  A    between atoms: _307  and  _309
REMARK  112  A    between atoms: _309  and  _310
REMARK  113  A    between atoms: _313  and  _315
REMARK  114  A    between atoms: _315  and  _316
REMARK  115  A    between atoms: _315  and  _318
REMARK  116  A    between atoms: _318  and  _319
REMARK  117  A    between atoms: _324  and  _325
REMARK  118  A    between atoms: _327  and  _329
REMARK  119  A    between atoms: _329  and  _330
REMARK  120  A    between atoms: _329  and  _332
REMARK  121  A    between atoms: _332  and  _333
REMARK  122  A    between atoms: _333  and  _334
REMARK  123  A    between atoms: _334  and  _335
REMARK  124  A    between atoms: _344  and  _346
REMARK  125  A    between atoms: _346  and  _347
REMARK  126  A    between atoms: _349  and  _351
REMARK  127  A    between atoms: _351  and  _352
REMARK  128  A    between atoms: _351  and  _354
REMARK  129  A    between atoms: _354  and  _355
REMARK                            x       y       z     vdW  Elec       q    Type
REMARK                         _______ _______ _______ _____ _____    ______ ____
ROOT
ATOM      1  C   THR A   1      33.310  72.009   2.668  0.00  0.00    +0.241 C 
ATOM      2  O   THR A   1      32.756  71.893   3.752  0.00  0.00    -0.274 OA
ATOM      3  N   ALA A   2      34.447  72.714   2.485  0.00  0.00    -0.298 N 
ATOM      4  H   ALA A   2      34.871  72.800   1.539  0.00  0.00    +0.150 HD
ENDROOT
BRANCH   3   5
ATOM      5  CA  ALA A   2      35.075  73.359   3.649  0.00  0.00    +0.137 C 
ATOM      6  CB  ALA A   2      36.605  73.134   3.580  0.00  0.00    +0.030 C 
BRANCH   5   7
ATOM      7  C   ALA A   2      34.747  74.813   3.712  0.00  0.00    +0.227 C 
ATOM      8  O   ALA A   2      34.285  75.463   2.757  0.00  0.00    -0.286 OA
ENDBRANCH   5   7
ENDBRANCH   3   5
BRANCH   1   9
ATOM      9  CA  THR A   1      32.661  71.358   1.436  0.00  0.00    +0.172 C 
BRANCH   9  10
ATOM     10  N   THR A   1      33.572  71.232   0.310  0.00  0.00    -0.236 NA
ATOM     11  H   THR A   1      34.371  70.569   0.367  0.00  0.00    +0.142 HD
ENDBRANCH   9  10
BRANCH   9  12
ATOM     12  CB  THR A   1      32.022  70.015   1.813  0.00  0.00    +0.135 C 
ATOM     13  CG2 THR A   1      31.173  69.519   0.612  0.00  0.00    +0.034 C 
BRANCH  12  14
ATOM     14  OG1 THR A   1      33.070  69.058   2.044  0.00  0.00    -0.383 OA
ATOM     15  HG1 THR A   1      33.610  68.956   1.220  0.00  0.00    +0.210 HD
ENDBRANCH  12  14
ENDBRANCH   9  12
ENDBRANCH   1   9
TORSDOF 6
REMARK  Name = ../refined-set-2016/3dx1/3dx1_pocket.pdb
REMARK  129 active torsions:
REMARK  status: ('A' for Active; 'I' for Inactive)
REMARK    1  A    between atoms: _1  and  _3
REMARK    2  A    between atoms: _14  and  _17
REMARK    3  A    between atoms: _17  and  _18
REMARK    4  A    between atoms: _25  and  _26
REMARK    5  A    between atoms: _33  and  _34
REMARK    6  A    between atoms: _39  and  _41
REMARK    7  A    between atoms: _41  and  _42
REMARK    8  A    between atoms: _44  and  _46
REMARK    9  A    between atoms: _46  and  _47
REMARK   10  A    between atoms: _46  and  _49
REMARK   11  A    between atoms: _49  and  _50
REMARK   12  A    between atoms: _60  and  _62
REMARK   13  A    between atoms: _62  and  _63
REMARK   14  A    between atoms: _62  and  _65
REMARK   15  A    between atoms: _65  and  _66
REMARK   16  A    between atoms: _69  and  _71
REMARK   17  A    between atoms: _71  and  _72
REMARK   18  A    between atoms: _71  and  _74
REMARK   19  A    between atoms: _74  and  _75
REMARK   20  A    between atoms: _80  and  _81
REMARK   21  A    between atoms: _83  and  _85
REMARK   22  A    between atoms: _85  and  _86
REMARK   23  A    between atoms: _85  and  _88
REMARK   24  A    between atoms: _88  and  _89
REMARK   25  A    between atoms: _89  and  _90
REMARK   26  A    between atoms: _93  and  _95
REMARK   27  A    between atoms: _95  and  _96
REMARK   28  A    between atoms: _95  and  _98
REMARK   29  A    between atoms: _98  and  _99
REMARK   30  A    between atoms: _99  and  _100
REMARK   31  A    between atoms: _102  and  _104
REMARK   32  A    between atoms: _104  and  _105
REMARK   33  A    between atoms: _104  and  _107
REMARK   34  A    between atoms: _107  and  _108
REMARK   35  A    between atoms: _111  and  _113
REMARK   36  A    between atoms: _113  and  _114
REMARK   37  A    between atoms: _113  and  _116
REMARK   38  A    between atoms: _116  and  _117
REMARK   39  A    between atoms: _117  and  _119
REMARK   40  A    between atoms: _119  and  ZN_358
REMARK   41  A    between atoms: _121  and  _122
REMARK   42  A    between atoms: _127  and  _129
REMARK   43  A    between atoms: _129  and  _130
REMARK   44  A    between atoms: _129  and  _132
REMARK   45  A    between atoms: _132  and  _133
REMARK   46  A    between atoms: _139  and  _141
REMARK   47  A    between atoms: _141  and  _142
REMARK   48  A    between atoms: _141  and  _144
REMARK   49  A    between atoms: _144  and  _145
REMARK   50  A    between atoms: _145  and  _146
REMARK   51  A    between atoms: _146  and  _147
REMARK   52  A    between atoms: _156  and  _158
REMARK   53  A    between atoms: _158  and  _159
REMARK   54  A    between atoms: _158  and  _161
REMARK   55  A    between atoms: _161  and  _162
REMARK   56  A    between atoms: _164  and  _166
REMARK   57  A    between atoms: _166  and  _167
REMARK   58  A    between atoms: _166  and  _169
REMARK   59  A    between atoms: _169  and  _170
REMARK   60  A    between atoms: _175  and  _176
REMARK   61  A    between atoms: _178  and  _180
REMARK   62  A    between atoms: _180  and  _181
REMARK   63  A    between atoms: _180  and  _183
REMARK   64  A    between atoms: _183  and  _184
REMARK   65  A    between atoms: _187  and  _189
REMARK   66  A    between atoms: _189  and  _190
REMARK   67  A    between atoms: _189  and  _192
REMARK   68  A    between atoms: _192  and  _193
REMARK   69  A    between atoms: _196  and  _198
REMARK   70  A    between atoms: _198  and  _199
REMARK   71  A    between atoms: _198  and  _201
REMARK   72  A    between atoms: _201  and  _202
REMARK   73  A    between atoms: _205  and  _207
REMARK   74  A    between atoms: _207  and  _208
REMARK   75  A    between atoms: _207  and  _210
REMARK   76  A    between atoms: _210  and  _211
REMARK   77  A    between atoms: _217  and  _219
REMARK   78  A    between atoms: _219  and  _220
REMARK   79  A    between atoms: _219  and  _222
REMARK   80  A    between atoms: _222  and  _223
REMARK   81  A    between atoms: _228  and  _229
REMARK   82  A    between atoms: _231  and  _233
REMARK   83  A    between atoms: _233  and  _234
REMARK   84  A    between atoms: _233  and  _236
REMARK   85  A    between atoms: _236  and  _237
REMARK   86  A    between atoms: _247  and  _249
REMARK   87  A    between atoms: _249  and  _250
REMARK   88  A    between atoms: _249  and  _252
REMARK   89  A    between atoms: _252  and  _253
REMARK   90  A    between atoms: _258  and  _260
REMARK   91  A    between atoms: _260  and  _261
REMARK   92  A    between atoms: _260  and  _263
REMARK   93  A    between atoms: _263  and  _264
REMARK   94  A    between atoms: _268  and  ZN_358
REMARK   95  A    between atoms: _269  and  _271
REMARK   96  A    between atoms: _271  and  _272
REMARK   97  A    between atoms: _271  and  _274
REMARK   98  A    between atoms: _274  and  _275
REMARK   99  A    between atoms: _278  and  _280
REMARK  100  A    between atoms: _280  and  _281
REMARK  101  A    between atoms: _283  and  _285
REMARK  102  A    between atoms: _285  and  _286
REMARK  103  A    between atoms: _285  and  _288
REMARK  104  A    between atoms: _288  and  _289
REMARK  105  A    between atoms: _292  and  _294
REMARK  106  A    between atoms: _294  and  _295
REMARK  107  A    between atoms: _294  and  _297
REMARK  108  A    between atoms: _297  and  _298
REMARK  109  A    between atoms: _301  and  _303
REMARK  110  A    between atoms: _303  and  _304
REMARK  111  A    between atoms: _307  and  _309
REMARK  112  A    between atoms: _309  and  _310
REMARK  113  A    between atoms: _313  and  _315
REMARK  114  A    between atoms: _315  and  _316
REMARK  115  A    between atoms: _315  and  _318
REMARK  116  A    between atoms: _318  and  _319
REMARK  117  A    between atoms: _324  and  _325
REMARK  118  A    between atoms: _327  and  _329
REMARK  119  A    between atoms: _329  and  _330
REMARK  120  A    between atoms: _329  and  _332
REMARK  121  A    between atoms: _332  and  _333
REMARK  122  A    between atoms: _333  and  _334
REMARK  123  A    between atoms: _334  and  _335
REMARK  124  A    between atoms: _344  and  _346
REMARK  125  A    between atoms: _346  and  _347
REMARK  126  A    between atoms: _349  and  _351
REMARK  127  A    between atoms: _351  and  _352
REMARK  128  A    between atoms: _351  and  _354
REMARK  129  A    between atoms: _354  and  _355
REMARK                            x       y       z     vdW  Elec       q    Type
REMARK                         _______ _______ _______ _____ _____    ______ ____
ROOT
ATOM      1  CA  TYR A   2      26.661  69.335  -0.263  0.00  0.00    +0.141 C 
ENDROOT
BRANCH   1   3
ATOM      2  C   ALA A   1      27.671  71.452  -0.974  0.00  0.00    +0.238 C 
ATOM      3  N   TYR A   2      26.866  70.784  -0.156  0.00  0.00    -0.298 N 
ATOM      4  H   TYR A   2      26.362  71.307   0.588  0.00  0.00    +0.150 HD
ATOM      5  O   ALA A   1      28.345  70.878  -1.830  0.00  0.00    -0.274 OA
BRANCH   2   6
ATOM      6  CA  ALA A   1      27.849  72.947  -0.757  0.00  0.00    +0.145 C 
ATOM      7  CB  ALA A   1      29.006  73.153   0.235  0.00  0.00    +0.028 C 
BRANCH   6   8
ATOM      8  N   ALA A   1      26.644  73.586  -0.239  0.00  0.00    -0.238 NA
ATOM      9  H   ALA A   1      26.658  74.080   0.676  0.00  0.00    +0.142 HD
ENDBRANCH   6   8
ENDBRANCH   2   6
ENDBRANCH   1   3
BRANCH   1  10
ATOM     10  C   TYR A   2      25.498  68.968  -1.147  0.00  0.00    +0.227 C 
ATOM     11  O   TYR A   2      25.629  68.097  -2.023  0.00  0.00    -0.286 OA
ENDBRANCH   1  10
BRANCH   1  12
ATOM     12  CB  TYR A   2      26.381  68.724   1.102  0.00  0.00    +0.054 C 
BRANCH  12  13
ATOM     13  CG  TYR A   2      27.437  68.946   2.166  0.00  0.00    -0.020 A 
ATOM     14  CD2 TYR A   2      27.450  70.112   2.937  0.00  0.00    -0.001 A 
ATOM     15  CE2 TYR A   2      28.408  70.327   3.912  0.00  0.00    +0.036 A 
ATOM     16  CZ  TYR A   2      29.355  69.351   4.176  0.00  0.00    +0.134 A 
ATOM     17  CE1 TYR A   2      29.345  68.190   3.440  0.00  0.00    +0.036 A 
ATOM     18  CD1 TYR A   2      28.414  68.007   2.462  0.00  0.00    -0.001 A 
BRANCH  16  19
ATOM     19  OH  TYR A   2      30.262  69.563   5.182  0.00  0.00    -0.506 OA
ATOM     20  HH  TYR A   2      30.156  68.862   5.873  0.00  0.00    +0.292 HD
ENDBRANCH  16  19
ENDBRANCH  12  13
ENDBRANCH   1  12
TORSDOF 7
REMARK  Name = ../refined-set-2016/3dx1/3dx1_pocket.pdb
REMARK  129 active torsions:
REMARK  status: ('A' for Active; 'I' for Inactive)
REMARK    1  A    between atoms: _1  and  _3
REMARK    2  A    between atoms: _14  and  _17
REMARK    3  A    between atoms: _17  and  _18
REMARK    4  A    between atoms: _25  and  _26
REMARK    5  A    between atoms: _33  and  _34
REMARK    6  A    between atoms: _39  and  _41
REMARK    7  A    between atoms: _41  and  _42
REMARK    8  A    between atoms: _44  and  _46
REMARK    9  A    between atoms: _46  and  _47
REMARK   10  A    between atoms: _46  and  _49
REMARK   11  A    between atoms: _49  and  _50
REMARK   12  A    between atoms: _60  and  _62
REMARK   13  A    between atoms: _62  and  _63
REMARK   14  A    between atoms: _62  and  _65
REMARK   15  A    between atoms: _65  and  _66
REMARK   16  A    between atoms: _69  and  _71
REMARK   17  A    between atoms: _71  and  _72
REMARK   18  A    between atoms: _71  and  _74
REMARK   19  A    between atoms: _74  and  _75
REMARK   20  A    between atoms: _80  and  _81
REMARK   21  A    between atoms: _83  and  _85
REMARK   22  A    between atoms: _85  and  _86
REMARK   23  A    between atoms: _85  and  _88
REMARK   24  A    between atoms: _88  and  _89
REMARK   25  A    between atoms: _89  and  _90
REMARK   26  A    between atoms: _93  and  _95
REMARK   27  A    between atoms: _95  and  _96
REMARK   28  A    between atoms: _95  and  _98
REMARK   29  A    between atoms: _98  and  _99
REMARK   30  A    between atoms: _99  and  _100
REMARK   31  A    between atoms: _102  and  _104
REMARK   32  A    between atoms: _104  and  _105
REMARK   33  A    between atoms: _104  and  _107
REMARK   34  A    between atoms: _107  and  _108
REMARK   35  A    between atoms: _111  and  _113
REMARK   36  A    between atoms: _113  and  _114
REMARK   37  A    between atoms: _113  and  _116
REMARK   38  A    between atoms: _116  and  _117
REMARK   39  A    between atoms: _117  and  _119
REMARK   40  A    between atoms: _119  and  ZN_358
REMARK   41  A    between atoms: _121  and  _122
REMARK   42  A    between atoms: _127  and  _129
REMARK   43  A    between atoms: _129  and  _130
REMARK   44  A    between atoms: _129  and  _132
REMARK   45  A    between atoms: _132  and  _133
REMARK   46  A    between atoms: _139  and  _141
REMARK   47  A    between atoms: _141  and  _142
REMARK   48  A    between atoms: _141  and  _144
REMARK   49  A    between atoms: _144  and  _145
REMARK   50  A    between atoms: _145  and  _146
REMARK   51  A    between atoms: _146  and  _147
REMARK   52  A    between atoms: _156  and  _158
REMARK   53  A    between atoms: _158  and  _159
REMARK   54  A    between atoms: _158  and  _161
REMARK   55  A    between atoms: _161  and  _162
REMARK   56  A    between atoms: _164  and  _166
REMARK   57  A    between atoms: _166  and  _167
REMARK   58  A    between atoms: _166  and  _169
REMARK   59  A    between atoms: _169  and  _170
REMARK   60  A    between atoms: _175  and  _176
REMARK   61  A    between atoms: _178  and  _180
REMARK   62  A    between atoms: _180  and  _181
REMARK   63  A    between atoms: _180  and  _183
REMARK   64  A    between atoms: _183  and  _184
REMARK   65  A    between atoms: _187  and  _189
REMARK   66  A    between atoms: _189  and  _190
REMARK   67  A    between atoms: _189  and  _192
REMARK   68  A    between atoms: _192  and  _193
REMARK   69  A    between atoms: _196  and  _198
REMARK   70  A    between atoms: _198  and  _199
REMARK   71  A    between atoms: _198  and  _201
REMARK   72  A    between atoms: _201  and  _202
REMARK   73  A    between atoms: _205  and  _207
REMARK   74  A    between atoms: _207  and  _208
REMARK   75  A    between atoms: _207  and  _210
REMARK   76  A    between atoms: _210  and  _211
REMARK   77  A    between atoms: _217  and  _219
REMARK   78  A    between atoms: _219  and  _220
REMARK   79  A    between atoms: _219  and  _222
REMARK   80  A    between atoms: _222  and  _223
REMARK   81  A    between atoms: _228  and  _229
REMARK   82  A    between atoms: _231  and  _233
REMARK   83  A    between atoms: _233  and  _234
REMARK   84  A    between atoms: _233  and  _236
REMARK   85  A    between atoms: _236  and  _237
REMARK   86  A    between atoms: _247  and  _249
REMARK   87  A    between atoms: _249  and  _250
REMARK   88  A    between atoms: _249  and  _252
REMARK   89  A    between atoms: _252  and  _253
REMARK   90  A    between atoms: _258  and  _260
REMARK   91  A    between atoms: _260  and  _261
REMARK   92  A    between atoms: _260  and  _263
REMARK   93  A    between atoms: _263  and  _264
REMARK   94  A    between atoms: _268  and  ZN_358
REMARK   95  A    between atoms: _269  and  _271
REMARK   96  A    between atoms: _271  and  _272
REMARK   97  A    between atoms: _271  and  _274
REMARK   98  A    between atoms: _274  and  _275
REMARK   99  A    between atoms: _278  and  _280
REMARK  100  A    between atoms: _280  and  _281
REMARK  101  A    between atoms: _283  and  _285
REMARK  102  A    between atoms: _285  and  _286
REMARK  103  A    between atoms: _285  and  _288
REMARK  104  A    between atoms: _288  and  _289
REMARK  105  A    between atoms: _292  and  _294
REMARK  106  A    between atoms: _294  and  _295
REMARK  107  A    between atoms: _294  and  _297
REMARK  108  A    between atoms: _297  and  _298
REMARK  109  A    between atoms: _301  and  _303
REMARK  110  A    between atoms: _303  and  _304
REMARK  111  A    between atoms: _307  and  _309
REMARK  112  A    between atoms: _309  and  _310
REMARK  113  A    between atoms: _313  and  _315
REMARK  114  A    between atoms: _315  and  _316
REMARK  115  A    between atoms: _315  and  _318
REMARK  116  A    between atoms: _318  and  _319
REMARK  117  A    between atoms: _324  and  _325
REMARK  118  A    between atoms: _327  and  _329
REMARK  119  A    between atoms: _329  and  _330
REMARK  120  A    between atoms: _329  and  _332
REMARK  121  A    between atoms: _332  and  _333
REMARK  122  A    between atoms: _333  and  _334
REMARK  123  A    between atoms: _334  and  _335
REMARK  124  A    between atoms: _344  and  _346
REMARK  125  A    between atoms: _346  and  _347
REMARK  126  A    between atoms: _349  and  _351
REMARK  127  A    between atoms: _351  and  _352
REMARK  128  A    between atoms: _351  and  _354
REMARK  129  A    between atoms: _354  and  _355
REMARK                            x       y       z     vdW  Elec       q    Type
REMARK                         _______ _______ _______ _____ _____    ______ ____
ROOT
ATOM      1  C   ARG A   1      26.448  70.075   8.152  0.00  0.00    +0.238 C 
ATOM      2  N   GLY A   2      26.443  71.278   8.699  0.00  0.00    -0.296 N 
ATOM      3  H   GLY A   2      25.691  71.939   8.418  0.00  0.00    +0.150 HD
ATOM      4  O   ARG A   1      27.386  69.271   8.290  0.00  0.00    -0.274 OA
ENDROOT
BRANCH   1   5
ATOM      5  CA  ARG A   1      25.239  69.655   7.328  0.00  0.00    +0.145 C 
BRANCH   5   6
ATOM      6  N   ARG A   1      24.331  70.778   7.021  0.00  0.00    -0.238 NA
ATOM      7  H   ARG A   1      24.648  71.531   6.378  0.00  0.00    +0.142 HD
ENDBRANCH   5   6
BRANCH   5   8
ATOM      8  CB  ARG A   1      25.667  68.943   6.019  0.00  0.00    +0.030 C 
BRANCH   8   9
ATOM      9  CG  ARG A   1      24.490  68.369   5.176  0.00  0.00    +0.045 C 
BRANCH   9  10
ATOM     10  CD  ARG A   1      23.643  67.426   6.001  0.00  0.00    +0.174 C 
BRANCH  10  11
ATOM     11  NE  ARG A   1      22.581  66.703   5.351  0.00  0.00    -0.265 N 
ATOM     12  HE  ARG A   1      22.774  65.718   5.079  0.00  0.00    +0.259 HD
ATOM     13  CZ  ARG A   1      21.365  67.190   5.066  0.00  0.00    +0.342 C 
ATOM     14  NH2 ARG A   1      21.101  68.496   5.316  0.00  0.00    -0.292 N 
ATOM     15 HH21 ARG A   1      21.837  69.107   5.724  0.00  0.00    +0.255 HD
ATOM     16 HH22 ARG A   1      20.162  68.887   5.100  0.00  0.00    +0.255 HD
ATOM     17  NH1 ARG A   1      20.454  66.378   4.532  0.00  0.00    -0.292 N 
ATOM     18 HH11 ARG A   1      20.691  65.383   4.343  0.00  0.00    +0.255 HD
ATOM     19 HH12 ARG A   1      19.505  66.739   4.304  0.00  0.00    +0.255 HD
ENDBRANCH  10  11
ENDBRANCH   9  10
ENDBRANCH   8   9
ENDBRANCH   5   8
ENDBRANCH   1   5
BRANCH   2  20
ATOM     20  CA  GLY A   2      27.422  71.731   9.666  0.00  0.00    +0.176 C 
BRANCH  20  21
ATOM     21  C   GLY A   2      28.462  72.699   9.128  0.00  0.00    +0.243 C 
ATOM     22  O   GLY A   2      29.283  73.215   9.911  0.00  0.00    -0.273 OA
ATOM     23  N   LEU A   3      28.447  72.954   7.840  0.00  0.00    -0.298 N 
ATOM     24  H   LEU A   3      27.724  72.514   7.235  0.00  0.00    +0.150 HD
BRANCH  23  25
ATOM     25  CA  LEU A   3      29.454  73.865   7.240  0.00  0.00    +0.137 C 
BRANCH  25  26
ATOM     26  C   LEU A   3      29.196  75.287   7.703  0.00  0.00    +0.227 C 
ATOM     27  O   LEU A   3      30.147  76.052   7.862  0.00  0.00    -0.286 OA
ENDBRANCH  25  26
BRANCH  25  28
ATOM     28  CB  LEU A   3      29.414  73.697   5.701  0.00  0.00    +0.028 C 
BRANCH  28  29
ATOM     29  CG  LEU A   3      30.245  74.711   4.914  0.00  0.00    +0.002 C 
ATOM     30  CD2 LEU A   3      31.705  74.716   5.353  0.00  0.00    +0.000 C 
ATOM     31  CD1 LEU A   3      30.094  74.469   3.403  0.00  0.00    +0.000 C 
ENDBRANCH  28  29
ENDBRANCH  25  28
ENDBRANCH  23  25
ENDBRANCH  20  21
ENDBRANCH   2  20
TORSDOF 12
REMARK  Name = ../refined-set-2016/3dx1/3dx1_pocket.pdb
REMARK  129 active torsions:
REMARK  status: ('A' for Active; 'I' for Inactive)
REMARK    1  A    between atoms: _1  and  _3
REMARK    2  A    between atoms: _14  and  _17
REMARK    3  A    between atoms: _17  and  _18
REMARK    4  A    between atoms: _25  and  _26
REMARK    5  A    between atoms: _33  and  _34
REMARK    6  A    between atoms: _39  and  _41
REMARK    7  A    between atoms: _41  and  _42
REMARK    8  A    between atoms: _44  and  _46
REMARK    9  A    between atoms: _46  and  _47
REMARK   10  A    between atoms: _46  and  _49
REMARK   11  A    between atoms: _49  and  _50
REMARK   12  A    between atoms: _60  and  _62
REMARK   13  A    between atoms: _62  and  _63
REMARK   14  A    between atoms: _62  and  _65
REMARK   15  A    between atoms: _65  and  _66
REMARK   16  A    between atoms: _69  and  _71
REMARK   17  A    between atoms: _71  and  _72
REMARK   18  A    between atoms: _71  and  _74
REMARK   19  A    between atoms: _74  and  _75
REMARK   20  A    between atoms: _80  and  _81
REMARK   21  A    between atoms: _83  and  _85
REMARK   22  A    between atoms: _85  and  _86
REMARK   23  A    between atoms: _85  and  _88
REMARK   24  A    between atoms: _88  and  _89
REMARK   25  A    between atoms: _89  and  _90
REMARK   26  A    between atoms: _93  and  _95
REMARK   27  A    between atoms: _95  and  _96
REMARK   28  A    between atoms: _95  and  _98
REMARK   29  A    between atoms: _98  and  _99
REMARK   30  A    between atoms: _99  and  _100
REMARK   31  A    between atoms: _102  and  _104
REMARK   32  A    between atoms: _104  and  _105
REMARK   33  A    between atoms: _104  and  _107
REMARK   34  A    between atoms: _107  and  _108
REMARK   35  A    between atoms: _111  and  _113
REMARK   36  A    between atoms: _113  and  _114
REMARK   37  A    between atoms: _113  and  _116
REMARK   38  A    between atoms: _116  and  _117
REMARK   39  A    between atoms: _117  and  _119
REMARK   40  A    between atoms: _119  and  ZN_358
REMARK   41  A    between atoms: _121  and  _122
REMARK   42  A    between atoms: _127  and  _129
REMARK   43  A    between atoms: _129  and  _130
REMARK   44  A    between atoms: _129  and  _132
REMARK   45  A    between atoms: _132  and  _133
REMARK   46  A    between atoms: _139  and  _141
REMARK   47  A    between atoms: _141  and  _142
REMARK   48  A    between atoms: _141  and  _144
REMARK   49  A    between atoms: _144  and  _145
REMARK   50  A    between atoms: _145  and  _146
REMARK   51  A    between atoms: _146  and  _147
REMARK   52  A    between atoms: _156  and  _158
REMARK   53  A    between atoms: _158  and  _159
REMARK   54  A    between atoms: _158  and  _161
REMARK   55  A    between atoms: _161  and  _162
REMARK   56  A    between atoms: _164  and  _166
REMARK   57  A    between atoms: _166  and  _167
REMARK   58  A    between atoms: _166  and  _169
REMARK   59  A    between atoms: _169  and  _170
REMARK   60  A    between atoms: _175  and  _176
REMARK   61  A    between atoms: _178  and  _180
REMARK   62  A    between atoms: _180  and  _181
REMARK   63  A    between atoms: _180  and  _183
REMARK   64  A    between atoms: _183  and  _184
REMARK   65  A    between atoms: _187  and  _189
REMARK   66  A    between atoms: _189  and  _190
REMARK   67  A    between atoms: _189  and  _192
REMARK   68  A    between atoms: _192  and  _193
REMARK   69  A    between atoms: _196  and  _198
REMARK   70  A    between atoms: _198  and  _199
REMARK   71  A    between atoms: _198  and  _201
REMARK   72  A    between atoms: _201  and  _202
REMARK   73  A    between atoms: _205  and  _207
REMARK   74  A    between atoms: _207  and  _208
REMARK   75  A    between atoms: _207  and  _210
REMARK   76  A    between atoms: _210  and  _211
REMARK   77  A    between atoms: _217  and  _219
REMARK   78  A    between atoms: _219  and  _220
REMARK   79  A    between atoms: _219  and  _222
REMARK   80  A    between atoms: _222  and  _223
REMARK   81  A    between atoms: _228  and  _229
REMARK   82  A    between atoms: _231  and  _233
REMARK   83  A    between atoms: _233  and  _234
REMARK   84  A    between atoms: _233  and  _236
REMARK   85  A    between atoms: _236  and  _237
REMARK   86  A    between atoms: _247  and  _249
REMARK   87  A    between atoms: _249  and  _250
REMARK   88  A    between atoms: _249  and  _252
REMARK   89  A    between atoms: _252  and  _253
REMARK   90  A    between atoms: _258  and  _260
REMARK   91  A    between atoms: _260  and  _261
REMARK   92  A    between atoms: _260  and  _263
REMARK   93  A    between atoms: _263  and  _264
REMARK   94  A    between atoms: _268  and  ZN_358
REMARK   95  A    between atoms: _269  and  _271
REMARK   96  A    between atoms: _271  and  _272
REMARK   97  A    between atoms: _271  and  _274
REMARK   98  A    between atoms: _274  and  _275
REMARK   99  A    between atoms: _278  and  _280
REMARK  100  A    between atoms: _280  and  _281
REMARK  101  A    between atoms: _283  and  _285
REMARK  102  A    between atoms: _285  and  _286
REMARK  103  A    between atoms: _285  and  _288
REMARK  104  A    between atoms: _288  and  _289
REMARK  105  A    between atoms: _292  and  _294
REMARK  106  A    between atoms: _294  and  _295
REMARK  107  A    between atoms: _294  and  _297
REMARK  108  A    between atoms: _297  and  _298
REMARK  109  A    between atoms: _301  and  _303
REMARK  110  A    between atoms: _303  and  _304
REMARK  111  A    between atoms: _307  and  _309
REMARK  112  A    between atoms: _309  and  _310
REMARK  113  A    between atoms: _313  and  _315
REMARK  114  A    between atoms: _315  and  _316
REMARK  115  A    between atoms: _315  and  _318
REMARK  116  A    between atoms: _318  and  _319
REMARK  117  A    between atoms: _324  and  _325
REMARK  118  A    between atoms: _327  and  _329
REMARK  119  A    between atoms: _329  and  _330
REMARK  120  A    between atoms: _329  and  _332
REMARK  121  A    between atoms: _332  and  _333
REMARK  122  A    between atoms: _333  and  _334
REMARK  123  A    between atoms: _334  and  _335
REMARK  124  A    between atoms: _344  and  _346
REMARK  125  A    between atoms: _346  and  _347
REMARK  126  A    between atoms: _349  and  _351
REMARK  127  A    between atoms: _351  and  _352
REMARK  128  A    between atoms: _351  and  _354
REMARK  129  A    between atoms: _354  and  _355
REMARK                            x       y       z     vdW  Elec       q    Type
REMARK                         _______ _______ _______ _____ _____    ______ ____
ROOT
ATOM      1  O   HOH     1      27.849  67.458  11.839  0.00  0.00    +0.000 OA
ENDROOT
TORSDOF 0
REMARK  Name = ../refined-set-2016/3dx1/3dx1_pocket.pdb
REMARK  129 active torsions:
REMARK  status: ('A' for Active; 'I' for Inactive)
REMARK    1  A    between atoms: _1  and  _3
REMARK    2  A    between atoms: _14  and  _17
REMARK    3  A    between atoms: _17  and  _18
REMARK    4  A    between atoms: _25  and  _26
REMARK    5  A    between atoms: _33  and  _34
REMARK    6  A    between atoms: _39  and  _41
REMARK    7  A    between atoms: _41  and  _42
REMARK    8  A    between atoms: _44  and  _46
REMARK    9  A    between atoms: _46  and  _47
REMARK   10  A    between atoms: _46  and  _49
REMARK   11  A    between atoms: _49  and  _50
REMARK   12  A    between atoms: _60  and  _62
REMARK   13  A    between atoms: _62  and  _63
REMARK   14  A    between atoms: _62  and  _65
REMARK   15  A    between atoms: _65  and  _66
REMARK   16  A    between atoms: _69  and  _71
REMARK   17  A    between atoms: _71  and  _72
REMARK   18  A    between atoms: _71  and  _74
REMARK   19  A    between atoms: _74  and  _75
REMARK   20  A    between atoms: _80  and  _81
REMARK   21  A    between atoms: _83  and  _85
REMARK   22  A    between atoms: _85  and  _86
REMARK   23  A    between atoms: _85  and  _88
REMARK   24  A    between atoms: _88  and  _89
REMARK   25  A    between atoms: _89  and  _90
REMARK   26  A    between atoms: _93  and  _95
REMARK   27  A    between atoms: _95  and  _96
REMARK   28  A    between atoms: _95  and  _98
REMARK   29  A    between atoms: _98  and  _99
REMARK   30  A    between atoms: _99  and  _100
REMARK   31  A    between atoms: _102  and  _104
REMARK   32  A    between atoms: _104  and  _105
REMARK   33  A    between atoms: _104  and  _107
REMARK   34  A    between atoms: _107  and  _108
REMARK   35  A    between atoms: _111  and  _113
REMARK   36  A    between atoms: _113  and  _114
REMARK   37  A    between atoms: _113  and  _116
REMARK   38  A    between atoms: _116  and  _117
REMARK   39  A    between atoms: _117  and  _119
REMARK   40  A    between atoms: _119  and  ZN_358
REMARK   41  A    between atoms: _121  and  _122
REMARK   42  A    between atoms: _127  and  _129
REMARK   43  A    between atoms: _129  and  _130
REMARK   44  A    between atoms: _129  and  _132
REMARK   45  A    between atoms: _132  and  _133
REMARK   46  A    between atoms: _139  and  _141
REMARK   47  A    between atoms: _141  and  _142
REMARK   48  A    between atoms: _141  and  _144
REMARK   49  A    between atoms: _144  and  _145
REMARK   50  A    between atoms: _145  and  _146
REMARK   51  A    between atoms: _146  and  _147
REMARK   52  A    between atoms: _156  and  _158
REMARK   53  A    between atoms: _158  and  _159
REMARK   54  A    between atoms: _158  and  _161
REMARK   55  A    between atoms: _161  and  _162
REMARK   56  A    between atoms: _164  and  _166
REMARK   57  A    between atoms: _166  and  _167
REMARK   58  A    between atoms: _166  and  _169
REMARK   59  A    between atoms: _169  and  _170
REMARK   60  A    between atoms: _175  and  _176
REMARK   61  A    between atoms: _178  and  _180
REMARK   62  A    between atoms: _180  and  _181
REMARK   63  A    between atoms: _180  and  _183
REMARK   64  A    between atoms: _183  and  _184
REMARK   65  A    between atoms: _187  and  _189
REMARK   66  A    between atoms: _189  and  _190
REMARK   67  A    between atoms: _189  and  _192
REMARK   68  A    between atoms: _192  and  _193
REMARK   69  A    between atoms: _196  and  _198
REMARK   70  A    between atoms: _198  and  _199
REMARK   71  A    between atoms: _198  and  _201
REMARK   72  A    between atoms: _201  and  _202
REMARK   73  A    between atoms: _205  and  _207
REMARK   74  A    between atoms: _207  and  _208
REMARK   75  A    between atoms: _207  and  _210
REMARK   76  A    between atoms: _210  and  _211
REMARK   77  A    between atoms: _217  and  _219
REMARK   78  A    between atoms: _219  and  _220
REMARK   79  A    between atoms: _219  and  _222
REMARK   80  A    between atoms: _222  and  _223
REMARK   81  A    between atoms: _228  and  _229
REMARK   82  A    between atoms: _231  and  _233
REMARK   83  A    between atoms: _233  and  _234
REMARK   84  A    between atoms: _233  and  _236
REMARK   85  A    between atoms: _236  and  _237
REMARK   86  A    between atoms: _247  and  _249
REMARK   87  A    between atoms: _249  and  _250
REMARK   88  A    between atoms: _249  and  _252
REMARK   89  A    between atoms: _252  and  _253
REMARK   90  A    between atoms: _258  and  _260
REMARK   91  A    between atoms: _260  and  _261
REMARK   92  A    between atoms: _260  and  _263
REMARK   93  A    between atoms: _263  and  _264
REMARK   94  A    between atoms: _268  and  ZN_358
REMARK   95  A    between atoms: _269  and  _271
REMARK   96  A    between atoms: _271  and  _272
REMARK   97  A    between atoms: _271  and  _274
REMARK   98  A    between atoms: _274  and  _275
REMARK   99  A    between atoms: _278  and  _280
REMARK  100  A    between atoms: _280  and  _281
REMARK  101  A    between atoms: _283  and  _285
REMARK  102  A    between atoms: _285  and  _286
REMARK  103  A    between atoms: _285  and  _288
REMARK  104  A    between atoms: _288  and  _289
REMARK  105  A    between atoms: _292  and  _294
REMARK  106  A    between atoms: _294  and  _295
REMARK  107  A    between atoms: _294  and  _297
REMARK  108  A    between atoms: _297  and  _298
REMARK  109  A    between atoms: _301  and  _303
REMARK  110  A    between atoms: _303  and  _304
REMARK  111  A    between atoms: _307  and  _309
REMARK  112  A    between atoms: _309  and  _310
REMARK  113  A    between atoms: _313  and  _315
REMARK  114  A    between atoms: _315  and  _316
REMARK  115  A    between atoms: _315  and  _318
REMARK  116  A    between atoms: _318  and  _319
REMARK  117  A    between atoms: _324  and  _325
REMARK  118  A    between atoms: _327  and  _329
REMARK  119  A    between atoms: _329  and  _330
REMARK  120  A    between atoms: _329  and  _332
REMARK  121  A    between atoms: _332  and  _333
REMARK  122  A    between atoms: _333  and  _334
REMARK  123  A    between atoms: _334  and  _335
REMARK  124  A    between atoms: _344  and  _346
REMARK  125  A    between atoms: _346  and  _347
REMARK  126  A    between atoms: _349  and  _351
REMARK  127  A    between atoms: _351  and  _352
REMARK  128  A    between atoms: _351  and  _354
REMARK  129  A    between atoms: _354  and  _355
REMARK                            x       y       z     vdW  Elec       q    Type
REMARK                         _______ _______ _______ _____ _____    ______ ____
ROOT
ATOM      1  O   HOH     1      24.465  65.741   8.986  0.00  0.00    +0.000 OA
ENDROOT
TORSDOF 0
REMARK  Name = ../refined-set-2016/3dx1/3dx1_pocket.pdb
REMARK  129 active torsions:
REMARK  status: ('A' for Active; 'I' for Inactive)
REMARK    1  A    between atoms: _1  and  _3
REMARK    2  A    between atoms: _14  and  _17
REMARK    3  A    between atoms: _17  and  _18
REMARK    4  A    between atoms: _25  and  _26
REMARK    5  A    between atoms: _33  and  _34
REMARK    6  A    between atoms: _39  and  _41
REMARK    7  A    between atoms: _41  and  _42
REMARK    8  A    between atoms: _44  and  _46
REMARK    9  A    between atoms: _46  and  _47
REMARK   10  A    between atoms: _46  and  _49
REMARK   11  A    between atoms: _49  and  _50
REMARK   12  A    between atoms: _60  and  _62
REMARK   13  A    between atoms: _62  and  _63
REMARK   14  A    between atoms: _62  and  _65
REMARK   15  A    between atoms: _65  and  _66
REMARK   16  A    between atoms: _69  and  _71
REMARK   17  A    between atoms: _71  and  _72
REMARK   18  A    between atoms: _71  and  _74
REMARK   19  A    between atoms: _74  and  _75
REMARK   20  A    between atoms: _80  and  _81
REMARK   21  A    between atoms: _83  and  _85
REMARK   22  A    between atoms: _85  and  _86
REMARK   23  A    between atoms: _85  and  _88
REMARK   24  A    between atoms: _88  and  _89
REMARK   25  A    between atoms: _89  and  _90
REMARK   26  A    between atoms: _93  and  _95
REMARK   27  A    between atoms: _95  and  _96
REMARK   28  A    between atoms: _95  and  _98
REMARK   29  A    between atoms: _98  and  _99
REMARK   30  A    between atoms: _99  and  _100
REMARK   31  A    between atoms: _102  and  _104
REMARK   32  A    between atoms: _104  and  _105
REMARK   33  A    between atoms: _104  and  _107
REMARK   34  A    between atoms: _107  and  _108
REMARK   35  A    between atoms: _111  and  _113
REMARK   36  A    between atoms: _113  and  _114
REMARK   37  A    between atoms: _113  and  _116
REMARK   38  A    between atoms: _116  and  _117
REMARK   39  A    between atoms: _117  and  _119
REMARK   40  A    between atoms: _119  and  ZN_358
REMARK   41  A    between atoms: _121  and  _122
REMARK   42  A    between atoms: _127  and  _129
REMARK   43  A    between atoms: _129  and  _130
REMARK   44  A    between atoms: _129  and  _132
REMARK   45  A    between atoms: _132  and  _133
REMARK   46  A    between atoms: _139  and  _141
REMARK   47  A    between atoms: _141  and  _142
REMARK   48  A    between atoms: _141  and  _144
REMARK   49  A    between atoms: _144  and  _145
REMARK   50  A    between atoms: _145  and  _146
REMARK   51  A    between atoms: _146  and  _147
REMARK   52  A    between atoms: _156  and  _158
REMARK   53  A    between atoms: _158  and  _159
REMARK   54  A    between atoms: _158  and  _161
REMARK   55  A    between atoms: _161  and  _162
REMARK   56  A    between atoms: _164  and  _166
REMARK   57  A    between atoms: _166  and  _167
REMARK   58  A    between atoms: _166  and  _169
REMARK   59  A    between atoms: _169  and  _170
REMARK   60  A    between atoms: _175  and  _176
REMARK   61  A    between atoms: _178  and  _180
REMARK   62  A    between atoms: _180  and  _181
REMARK   63  A    between atoms: _180  and  _183
REMARK   64  A    between atoms: _183  and  _184
REMARK   65  A    between atoms: _187  and  _189
REMARK   66  A    between atoms: _189  and  _190
REMARK   67  A    between atoms: _189  and  _192
REMARK   68  A    between atoms: _192  and  _193
REMARK   69  A    between atoms: _196  and  _198
REMARK   70  A    between atoms: _198  and  _199
REMARK   71  A    between atoms: _198  and  _201
REMARK   72  A    between atoms: _201  and  _202
REMARK   73  A    between atoms: _205  and  _207
REMARK   74  A    between atoms: _207  and  _208
REMARK   75  A    between atoms: _207  and  _210
REMARK   76  A    between atoms: _210  and  _211
REMARK   77  A    between atoms: _217  and  _219
REMARK   78  A    between atoms: _219  and  _220
REMARK   79  A    between atoms: _219  and  _222
REMARK   80  A    between atoms: _222  and  _223
REMARK   81  A    between atoms: _228  and  _229
REMARK   82  A    between atoms: _231  and  _233
REMARK   83  A    between atoms: _233  and  _234
REMARK   84  A    between atoms: _233  and  _236
REMARK   85  A    between atoms: _236  and  _237
REMARK   86  A    between atoms: _247  and  _249
REMARK   87  A    between atoms: _249  and  _250
REMARK   88  A    between atoms: _249  and  _252
REMARK   89  A    between atoms: _252  and  _253
REMARK   90  A    between atoms: _258  and  _260
REMARK   91  A    between atoms: _260  and  _261
REMARK   92  A    between atoms: _260  and  _263
REMARK   93  A    between atoms: _263  and  _264
REMARK   94  A    between atoms: _268  and  ZN_358
REMARK   95  A    between atoms: _269  and  _271
REMARK   96  A    between atoms: _271  and  _272
REMARK   97  A    between atoms: _271  and  _274
REMARK   98  A    between atoms: _274  and  _275
REMARK   99  A    between atoms: _278  and  _280
REMARK  100  A    between atoms: _280  and  _281
REMARK  101  A    between atoms: _283  and  _285
REMARK  102  A    between atoms: _285  and  _286
REMARK  103  A    between atoms: _285  and  _288
REMARK  104  A    between atoms: _288  and  _289
REMARK  105  A    between atoms: _292  and  _294
REMARK  106  A    between atoms: _294  and  _295
REMARK  107  A    between atoms: _294  and  _297
REMARK  108  A    between atoms: _297  and  _298
REMARK  109  A    between atoms: _301  and  _303
REMARK  110  A    between atoms: _303  and  _304
REMARK  111  A    between atoms: _307  and  _309
REMARK  112  A    between atoms: _309  and  _310
REMARK  113  A    between atoms: _313  and  _315
REMARK  114  A    between atoms: _315  and  _316
REMARK  115  A    between atoms: _315  and  _318
REMARK  116  A    between atoms: _318  and  _319
REMARK  117  A    between atoms: _324  and  _325
REMARK  118  A    between atoms: _327  and  _329
REMARK  119  A    between atoms: _329  and  _330
REMARK  120  A    between atoms: _329  and  _332
REMARK  121  A    between atoms: _332  and  _333
REMARK  122  A    between atoms: _333  and  _334
REMARK  123  A    between atoms: _334  and  _335
REMARK  124  A    between atoms: _344  and  _346
REMARK  125  A    between atoms: _346  and  _347
REMARK  126  A    between atoms: _349  and  _351
REMARK  127  A    between atoms: _351  and  _352
REMARK  128  A    between atoms: _351  and  _354
REMARK  129  A    between atoms: _354  and  _355
REMARK                            x       y       z     vdW  Elec       q    Type
REMARK                         _______ _______ _______ _____ _____    ______ ____
ROOT
ATOM      1  O   HOH     1      29.721  65.434  12.048  0.00  0.00    +0.000 OA
ENDROOT
TORSDOF 0
REMARK  Name = ../refined-set-2016/3dx1/3dx1_pocket.pdb
REMARK  129 active torsions:
REMARK  status: ('A' for Active; 'I' for Inactive)
REMARK    1  A    between atoms: _1  and  _3
REMARK    2  A    between atoms: _14  and  _17
REMARK    3  A    between atoms: _17  and  _18
REMARK    4  A    between atoms: _25  and  _26
REMARK    5  A    between atoms: _33  and  _34
REMARK    6  A    between atoms: _39  and  _41
REMARK    7  A    between atoms: _41  and  _42
REMARK    8  A    between atoms: _44  and  _46
REMARK    9  A    between atoms: _46  and  _47
REMARK   10  A    between atoms: _46  and  _49
REMARK   11  A    between atoms: _49  and  _50
REMARK   12  A    between atoms: _60  and  _62
REMARK   13  A    between atoms: _62  and  _63
REMARK   14  A    between atoms: _62  and  _65
REMARK   15  A    between atoms: _65  and  _66
REMARK   16  A    between atoms: _69  and  _71
REMARK   17  A    between atoms: _71  and  _72
REMARK   18  A    between atoms: _71  and  _74
REMARK   19  A    between atoms: _74  and  _75
REMARK   20  A    between atoms: _80  and  _81
REMARK   21  A    between atoms: _83  and  _85
REMARK   22  A    between atoms: _85  and  _86
REMARK   23  A    between atoms: _85  and  _88
REMARK   24  A    between atoms: _88  and  _89
REMARK   25  A    between atoms: _89  and  _90
REMARK   26  A    between atoms: _93  and  _95
REMARK   27  A    between atoms: _95  and  _96
REMARK   28  A    between atoms: _95  and  _98
REMARK   29  A    between atoms: _98  and  _99
REMARK   30  A    between atoms: _99  and  _100
REMARK   31  A    between atoms: _102  and  _104
REMARK   32  A    between atoms: _104  and  _105
REMARK   33  A    between atoms: _104  and  _107
REMARK   34  A    between atoms: _107  and  _108
REMARK   35  A    between atoms: _111  and  _113
REMARK   36  A    between atoms: _113  and  _114
REMARK   37  A    between atoms: _113  and  _116
REMARK   38  A    between atoms: _116  and  _117
REMARK   39  A    between atoms: _117  and  _119
REMARK   40  A    between atoms: _119  and  ZN_358
REMARK   41  A    between atoms: _121  and  _122
REMARK   42  A    between atoms: _127  and  _129
REMARK   43  A    between atoms: _129  and  _130
REMARK   44  A    between atoms: _129  and  _132
REMARK   45  A    between atoms: _132  and  _133
REMARK   46  A    between atoms: _139  and  _141
REMARK   47  A    between atoms: _141  and  _142
REMARK   48  A    between atoms: _141  and  _144
REMARK   49  A    between atoms: _144  and  _145
REMARK   50  A    between atoms: _145  and  _146
REMARK   51  A    between atoms: _146  and  _147
REMARK   52  A    between atoms: _156  and  _158
REMARK   53  A    between atoms: _158  and  _159
REMARK   54  A    between atoms: _158  and  _161
REMARK   55  A    between atoms: _161  and  _162
REMARK   56  A    between atoms: _164  and  _166
REMARK   57  A    between atoms: _166  and  _167
REMARK   58  A    between atoms: _166  and  _169
REMARK   59  A    between atoms: _169  and  _170
REMARK   60  A    between atoms: _175  and  _176
REMARK   61  A    between atoms: _178  and  _180
REMARK   62  A    between atoms: _180  and  _181
REMARK   63  A    between atoms: _180  and  _183
REMARK   64  A    between atoms: _183  and  _184
REMARK   65  A    between atoms: _187  and  _189
REMARK   66  A    between atoms: _189  and  _190
REMARK   67  A    between atoms: _189  and  _192
REMARK   68  A    between atoms: _192  and  _193
REMARK   69  A    between atoms: _196  and  _198
REMARK   70  A    between atoms: _198  and  _199
REMARK   71  A    between atoms: _198  and  _201
REMARK   72  A    between atoms: _201  and  _202
REMARK   73  A    between atoms: _205  and  _207
REMARK   74  A    between atoms: _207  and  _208
REMARK   75  A    between atoms: _207  and  _210
REMARK   76  A    between atoms: _210  and  _211
REMARK   77  A    between atoms: _217  and  _219
REMARK   78  A    between atoms: _219  and  _220
REMARK   79  A    between atoms: _219  and  _222
REMARK   80  A    between atoms: _222  and  _223
REMARK   81  A    between atoms: _228  and  _229
REMARK   82  A    between atoms: _231  and  _233
REMARK   83  A    between atoms: _233  and  _234
REMARK   84  A    between atoms: _233  and  _236
REMARK   85  A    between atoms: _236  and  _237
REMARK   86  A    between atoms: _247  and  _249
REMARK   87  A    between atoms: _249  and  _250
REMARK   88  A    between atoms: _249  and  _252
REMARK   89  A    between atoms: _252  and  _253
REMARK   90  A    between atoms: _258  and  _260
REMARK   91  A    between atoms: _260  and  _261
REMARK   92  A    between atoms: _260  and  _263
REMARK   93  A    between atoms: _263  and  _264
REMARK   94  A    between atoms: _268  and  ZN_358
REMARK   95  A    between atoms: _269  and  _271
REMARK   96  A    between atoms: _271  and  _272
REMARK   97  A    between atoms: _271  and  _274
REMARK   98  A    between atoms: _274  and  _275
REMARK   99  A    between atoms: _278  and  _280
REMARK  100  A    between atoms: _280  and  _281
REMARK  101  A    between atoms: _283  and  _285
REMARK  102  A    between atoms: _285  and  _286
REMARK  103  A    between atoms: _285  and  _288
REMARK  104  A    between atoms: _288  and  _289
REMARK  105  A    between atoms: _292  and  _294
REMARK  106  A    between atoms: _294  and  _295
REMARK  107  A    between atoms: _294  and  _297
REMARK  108  A    between atoms: _297  and  _298
REMARK  109  A    between atoms: _301  and  _303
REMARK  110  A    between atoms: _303  and  _304
REMARK  111  A    between atoms: _307  and  _309
REMARK  112  A    between atoms: _309  and  _310
REMARK  113  A    between atoms: _313  and  _315
REMARK  114  A    between atoms: _315  and  _316
REMARK  115  A    between atoms: _315  and  _318
REMARK  116  A    between atoms: _318  and  _319
REMARK  117  A    between atoms: _324  and  _325
REMARK  118  A    between atoms: _327  and  _329
REMARK  119  A    between atoms: _329  and  _330
REMARK  120  A    between atoms: _329  and  _332
REMARK  121  A    between atoms: _332  and  _333
REMARK  122  A    between atoms: _333  and  _334
REMARK  123  A    between atoms: _334  and  _335
REMARK  124  A    between atoms: _344  and  _346
REMARK  125  A    between atoms: _346  and  _347
REMARK  126  A    between atoms: _349  and  _351
REMARK  127  A    between atoms: _351  and  _352
REMARK  128  A    between atoms: _351  and  _354
REMARK  129  A    between atoms: _354  and  _355
REMARK                            x       y       z     vdW  Elec       q    Type
REMARK                         _______ _______ _______ _____ _____    ______ ____
ROOT
ATOM      1  O   HOH     1      24.364  63.137  11.491  0.00  0.00    +0.000 OA
ENDROOT
TORSDOF 0
REMARK  Name = ../refined-set-2016/3dx1/3dx1_pocket.pdb
REMARK  129 active torsions:
REMARK  status: ('A' for Active; 'I' for Inactive)
REMARK    1  A    between atoms: _1  and  _3
REMARK    2  A    between atoms: _14  and  _17
REMARK    3  A    between atoms: _17  and  _18
REMARK    4  A    between atoms: _25  and  _26
REMARK    5  A    between atoms: _33  and  _34
REMARK    6  A    between atoms: _39  and  _41
REMARK    7  A    between atoms: _41  and  _42
REMARK    8  A    between atoms: _44  and  _46
REMARK    9  A    between atoms: _46  and  _47
REMARK   10  A    between atoms: _46  and  _49
REMARK   11  A    between atoms: _49  and  _50
REMARK   12  A    between atoms: _60  and  _62
REMARK   13  A    between atoms: _62  and  _63
REMARK   14  A    between atoms: _62  and  _65
REMARK   15  A    between atoms: _65  and  _66
REMARK   16  A    between atoms: _69  and  _71
REMARK   17  A    between atoms: _71  and  _72
REMARK   18  A    between atoms: _71  and  _74
REMARK   19  A    between atoms: _74  and  _75
REMARK   20  A    between atoms: _80  and  _81
REMARK   21  A    between atoms: _83  and  _85
REMARK   22  A    between atoms: _85  and  _86
REMARK   23  A    between atoms: _85  and  _88
REMARK   24  A    between atoms: _88  and  _89
REMARK   25  A    between atoms: _89  and  _90
REMARK   26  A    between atoms: _93  and  _95
REMARK   27  A    between atoms: _95  and  _96
REMARK   28  A    between atoms: _95  and  _98
REMARK   29  A    between atoms: _98  and  _99
REMARK   30  A    between atoms: _99  and  _100
REMARK   31  A    between atoms: _102  and  _104
REMARK   32  A    between atoms: _104  and  _105
REMARK   33  A    between atoms: _104  and  _107
REMARK   34  A    between atoms: _107  and  _108
REMARK   35  A    between atoms: _111  and  _113
REMARK   36  A    between atoms: _113  and  _114
REMARK   37  A    between atoms: _113  and  _116
REMARK   38  A    between atoms: _116  and  _117
REMARK   39  A    between atoms: _117  and  _119
REMARK   40  A    between atoms: _119  and  ZN_358
REMARK   41  A    between atoms: _121  and  _122
REMARK   42  A    between atoms: _127  and  _129
REMARK   43  A    between atoms: _129  and  _130
REMARK   44  A    between atoms: _129  and  _132
REMARK   45  A    between atoms: _132  and  _133
REMARK   46  A    between atoms: _139  and  _141
REMARK   47  A    between atoms: _141  and  _142
REMARK   48  A    between atoms: _141  and  _144
REMARK   49  A    between atoms: _144  and  _145
REMARK   50  A    between atoms: _145  and  _146
REMARK   51  A    between atoms: _146  and  _147
REMARK   52  A    between atoms: _156  and  _158
REMARK   53  A    between atoms: _158  and  _159
REMARK   54  A    between atoms: _158  and  _161
REMARK   55  A    between atoms: _161  and  _162
REMARK   56  A    between atoms: _164  and  _166
REMARK   57  A    between atoms: _166  and  _167
REMARK   58  A    between atoms: _166  and  _169
REMARK   59  A    between atoms: _169  and  _170
REMARK   60  A    between atoms: _175  and  _176
REMARK   61  A    between atoms: _178  and  _180
REMARK   62  A    between atoms: _180  and  _181
REMARK   63  A    between atoms: _180  and  _183
REMARK   64  A    between atoms: _183  and  _184
REMARK   65  A    between atoms: _187  and  _189
REMARK   66  A    between atoms: _189  and  _190
REMARK   67  A    between atoms: _189  and  _192
REMARK   68  A    between atoms: _192  and  _193
REMARK   69  A    between atoms: _196  and  _198
REMARK   70  A    between atoms: _198  and  _199
REMARK   71  A    between atoms: _198  and  _201
REMARK   72  A    between atoms: _201  and  _202
REMARK   73  A    between atoms: _205  and  _207
REMARK   74  A    between atoms: _207  and  _208
REMARK   75  A    between atoms: _207  and  _210
REMARK   76  A    between atoms: _210  and  _211
REMARK   77  A    between atoms: _217  and  _219
REMARK   78  A    between atoms: _219  and  _220
REMARK   79  A    between atoms: _219  and  _222
REMARK   80  A    between atoms: _222  and  _223
REMARK   81  A    between atoms: _228  and  _229
REMARK   82  A    between atoms: _231  and  _233
REMARK   83  A    between atoms: _233  and  _234
REMARK   84  A    between atoms: _233  and  _236
REMARK   85  A    between atoms: _236  and  _237
REMARK   86  A    between atoms: _247  and  _249
REMARK   87  A    between atoms: _249  and  _250
REMARK   88  A    between atoms: _249  and  _252
REMARK   89  A    between atoms: _252  and  _253
REMARK   90  A    between atoms: _258  and  _260
REMARK   91  A    between atoms: _260  and  _261
REMARK   92  A    between atoms: _260  and  _263
REMARK   93  A    between atoms: _263  and  _264
REMARK   94  A    between atoms: _268  and  ZN_358
REMARK   95  A    between atoms: _269  and  _271
REMARK   96  A    between atoms: _271  and  _272
REMARK   97  A    between atoms: _271  and  _274
REMARK   98  A    between atoms: _274  and  _275
REMARK   99  A    between atoms: _278  and  _280
REMARK  100  A    between atoms: _280  and  _281
REMARK  101  A    between atoms: _283  and  _285
REMARK  102  A    between atoms: _285  and  _286
REMARK  103  A    between atoms: _285  and  _288
REMARK  104  A    between atoms: _288  and  _289
REMARK  105  A    between atoms: _292  and  _294
REMARK  106  A    between atoms: _294  and  _295
REMARK  107  A    between atoms: _294  and  _297
REMARK  108  A    between atoms: _297  and  _298
REMARK  109  A    between atoms: _301  and  _303
REMARK  110  A    between atoms: _303  and  _304
REMARK  111  A    between atoms: _307  and  _309
REMARK  112  A    between atoms: _309  and  _310
REMARK  113  A    between atoms: _313  and  _315
REMARK  114  A    between atoms: _315  and  _316
REMARK  115  A    between atoms: _315  and  _318
REMARK  116  A    between atoms: _318  and  _319
REMARK  117  A    between atoms: _324  and  _325
REMARK  118  A    between atoms: _327  and  _329
REMARK  119  A    between atoms: _329  and  _330
REMARK  120  A    between atoms: _329  and  _332
REMARK  121  A    between atoms: _332  and  _333
REMARK  122  A    between atoms: _333  and  _334
REMARK  123  A    between atoms: _334  and  _335
REMARK  124  A    between atoms: _344  and  _346
REMARK  125  A    between atoms: _346  and  _347
REMARK  126  A    between atoms: _349  and  _351
REMARK  127  A    between atoms: _351  and  _352
REMARK  128  A    between atoms: _351  and  _354
REMARK  129  A    between atoms: _354  and  _355
REMARK                            x       y       z     vdW  Elec       q    Type
REMARK                         _______ _______ _______ _____ _____    ______ ____
ROOT
ATOM      1  O   HOH     1      28.715  69.337  12.898  0.00  0.00    +0.000 OA
ENDROOT
TORSDOF 0
REMARK  Name = ../refined-set-2016/3dx1/3dx1_pocket.pdb
REMARK  129 active torsions:
REMARK  status: ('A' for Active; 'I' for Inactive)
REMARK    1  A    between atoms: _1  and  _3
REMARK    2  A    between atoms: _14  and  _17
REMARK    3  A    between atoms: _17  and  _18
REMARK    4  A    between atoms: _25  and  _26
REMARK    5  A    between atoms: _33  and  _34
REMARK    6  A    between atoms: _39  and  _41
REMARK    7  A    between atoms: _41  and  _42
REMARK    8  A    between atoms: _44  and  _46
REMARK    9  A    between atoms: _46  and  _47
REMARK   10  A    between atoms: _46  and  _49
REMARK   11  A    between atoms: _49  and  _50
REMARK   12  A    between atoms: _60  and  _62
REMARK   13  A    between atoms: _62  and  _63
REMARK   14  A    between atoms: _62  and  _65
REMARK   15  A    between atoms: _65  and  _66
REMARK   16  A    between atoms: _69  and  _71
REMARK   17  A    between atoms: _71  and  _72
REMARK   18  A    between atoms: _71  and  _74
REMARK   19  A    between atoms: _74  and  _75
REMARK   20  A    between atoms: _80  and  _81
REMARK   21  A    between atoms: _83  and  _85
REMARK   22  A    between atoms: _85  and  _86
REMARK   23  A    between atoms: _85  and  _88
REMARK   24  A    between atoms: _88  and  _89
REMARK   25  A    between atoms: _89  and  _90
REMARK   26  A    between atoms: _93  and  _95
REMARK   27  A    between atoms: _95  and  _96
REMARK   28  A    between atoms: _95  and  _98
REMARK   29  A    between atoms: _98  and  _99
REMARK   30  A    between atoms: _99  and  _100
REMARK   31  A    between atoms: _102  and  _104
REMARK   32  A    between atoms: _104  and  _105
REMARK   33  A    between atoms: _104  and  _107
REMARK   34  A    between atoms: _107  and  _108
REMARK   35  A    between atoms: _111  and  _113
REMARK   36  A    between atoms: _113  and  _114
REMARK   37  A    between atoms: _113  and  _116
REMARK   38  A    between atoms: _116  and  _117
REMARK   39  A    between atoms: _117  and  _119
REMARK   40  A    between atoms: _119  and  ZN_358
REMARK   41  A    between atoms: _121  and  _122
REMARK   42  A    between atoms: _127  and  _129
REMARK   43  A    between atoms: _129  and  _130
REMARK   44  A    between atoms: _129  and  _132
REMARK   45  A    between atoms: _132  and  _133
REMARK   46  A    between atoms: _139  and  _141
REMARK   47  A    between atoms: _141  and  _142
REMARK   48  A    between atoms: _141  and  _144
REMARK   49  A    between atoms: _144  and  _145
REMARK   50  A    between atoms: _145  and  _146
REMARK   51  A    between atoms: _146  and  _147
REMARK   52  A    between atoms: _156  and  _158
REMARK   53  A    between atoms: _158  and  _159
REMARK   54  A    between atoms: _158  and  _161
REMARK   55  A    between atoms: _161  and  _162
REMARK   56  A    between atoms: _164  and  _166
REMARK   57  A    between atoms: _166  and  _167
REMARK   58  A    between atoms: _166  and  _169
REMARK   59  A    between atoms: _169  and  _170
REMARK   60  A    between atoms: _175  and  _176
REMARK   61  A    between atoms: _178  and  _180
REMARK   62  A    between atoms: _180  and  _181
REMARK   63  A    between atoms: _180  and  _183
REMARK   64  A    between atoms: _183  and  _184
REMARK   65  A    between atoms: _187  and  _189
REMARK   66  A    between atoms: _189  and  _190
REMARK   67  A    between atoms: _189  and  _192
REMARK   68  A    between atoms: _192  and  _193
REMARK   69  A    between atoms: _196  and  _198
REMARK   70  A    between atoms: _198  and  _199
REMARK   71  A    between atoms: _198  and  _201
REMARK   72  A    between atoms: _201  and  _202
REMARK   73  A    between atoms: _205  and  _207
REMARK   74  A    between atoms: _207  and  _208
REMARK   75  A    between atoms: _207  and  _210
REMARK   76  A    between atoms: _210  and  _211
REMARK   77  A    between atoms: _217  and  _219
REMARK   78  A    between atoms: _219  and  _220
REMARK   79  A    between atoms: _219  and  _222
REMARK   80  A    between atoms: _222  and  _223
REMARK   81  A    between atoms: _228  and  _229
REMARK   82  A    between atoms: _231  and  _233
REMARK   83  A    between atoms: _233  and  _234
REMARK   84  A    between atoms: _233  and  _236
REMARK   85  A    between atoms: _236  and  _237
REMARK   86  A    between atoms: _247  and  _249
REMARK   87  A    between atoms: _249  and  _250
REMARK   88  A    between atoms: _249  and  _252
REMARK   89  A    between atoms: _252  and  _253
REMARK   90  A    between atoms: _258  and  _260
REMARK   91  A    between atoms: _260  and  _261
REMARK   92  A    between atoms: _260  and  _263
REMARK   93  A    between atoms: _263  and  _264
REMARK   94  A    between atoms: _268  and  ZN_358
REMARK   95  A    between atoms: _269  and  _271
REMARK   96  A    between atoms: _271  and  _272
REMARK   97  A    between atoms: _271  and  _274
REMARK   98  A    between atoms: _274  and  _275
REMARK   99  A    between atoms: _278  and  _280
REMARK  100  A    between atoms: _280  and  _281
REMARK  101  A    between atoms: _283  and  _285
REMARK  102  A    between atoms: _285  and  _286
REMARK  103  A    between atoms: _285  and  _288
REMARK  104  A    between atoms: _288  and  _289
REMARK  105  A    between atoms: _292  and  _294
REMARK  106  A    between atoms: _294  and  _295
REMARK  107  A    between atoms: _294  and  _297
REMARK  108  A    between atoms: _297  and  _298
REMARK  109  A    between atoms: _301  and  _303
REMARK  110  A    between atoms: _303  and  _304
REMARK  111  A    between atoms: _307  and  _309
REMARK  112  A    between atoms: _309  and  _310
REMARK  113  A    between atoms: _313  and  _315
REMARK  114  A    between atoms: _315  and  _316
REMARK  115  A    between atoms: _315  and  _318
REMARK  116  A    between atoms: _318  and  _319
REMARK  117  A    between atoms: _324  and  _325
REMARK  118  A    between atoms: _327  and  _329
REMARK  119  A    between atoms: _329  and  _330
REMARK  120  A    between atoms: _329  and  _332
REMARK  121  A    between atoms: _332  and  _333
REMARK  122  A    between atoms: _333  and  _334
REMARK  123  A    between atoms: _334  and  _335
REMARK  124  A    between atoms: _344  and  _346
REMARK  125  A    between atoms: _346  and  _347
REMARK  126  A    between atoms: _349  and  _351
REMARK  127  A    between atoms: _351  and  _352
REMARK  128  A    between atoms: _351  and  _354
REMARK  129  A    between atoms: _354  and  _355
REMARK                            x       y       z     vdW  Elec       q    Type
REMARK                         _______ _______ _______ _____ _____    ______ ____
ROOT
ATOM      1  O   HOH     1      27.237  60.878  10.244  0.00  0.00    +0.000 OA
ENDROOT
TORSDOF 0
REMARK  Name = ../refined-set-2016/3dx1/3dx1_pocket.pdb
REMARK  129 active torsions:
REMARK  status: ('A' for Active; 'I' for Inactive)
REMARK    1  A    between atoms: _1  and  _3
REMARK    2  A    between atoms: _14  and  _17
REMARK    3  A    between atoms: _17  and  _18
REMARK    4  A    between atoms: _25  and  _26
REMARK    5  A    between atoms: _33  and  _34
REMARK    6  A    between atoms: _39  and  _41
REMARK    7  A    between atoms: _41  and  _42
REMARK    8  A    between atoms: _44  and  _46
REMARK    9  A    between atoms: _46  and  _47
REMARK   10  A    between atoms: _46  and  _49
REMARK   11  A    between atoms: _49  and  _50
REMARK   12  A    between atoms: _60  and  _62
REMARK   13  A    between atoms: _62  and  _63
REMARK   14  A    between atoms: _62  and  _65
REMARK   15  A    between atoms: _65  and  _66
REMARK   16  A    between atoms: _69  and  _71
REMARK   17  A    between atoms: _71  and  _72
REMARK   18  A    between atoms: _71  and  _74
REMARK   19  A    between atoms: _74  and  _75
REMARK   20  A    between atoms: _80  and  _81
REMARK   21  A    between atoms: _83  and  _85
REMARK   22  A    between atoms: _85  and  _86
REMARK   23  A    between atoms: _85  and  _88
REMARK   24  A    between atoms: _88  and  _89
REMARK   25  A    between atoms: _89  and  _90
REMARK   26  A    between atoms: _93  and  _95
REMARK   27  A    between atoms: _95  and  _96
REMARK   28  A    between atoms: _95  and  _98
REMARK   29  A    between atoms: _98  and  _99
REMARK   30  A    between atoms: _99  and  _100
REMARK   31  A    between atoms: _102  and  _104
REMARK   32  A    between atoms: _104  and  _105
REMARK   33  A    between atoms: _104  and  _107
REMARK   34  A    between atoms: _107  and  _108
REMARK   35  A    between atoms: _111  and  _113
REMARK   36  A    between atoms: _113  and  _114
REMARK   37  A    between atoms: _113  and  _116
REMARK   38  A    between atoms: _116  and  _117
REMARK   39  A    between atoms: _117  and  _119
REMARK   40  A    between atoms: _119  and  ZN_358
REMARK   41  A    between atoms: _121  and  _122
REMARK   42  A    between atoms: _127  and  _129
REMARK   43  A    between atoms: _129  and  _130
REMARK   44  A    between atoms: _129  and  _132
REMARK   45  A    between atoms: _132  and  _133
REMARK   46  A    between atoms: _139  and  _141
REMARK   47  A    between atoms: _141  and  _142
REMARK   48  A    between atoms: _141  and  _144
REMARK   49  A    between atoms: _144  and  _145
REMARK   50  A    between atoms: _145  and  _146
REMARK   51  A    between atoms: _146  and  _147
REMARK   52  A    between atoms: _156  and  _158
REMARK   53  A    between atoms: _158  and  _159
REMARK   54  A    between atoms: _158  and  _161
REMARK   55  A    between atoms: _161  and  _162
REMARK   56  A    between atoms: _164  and  _166
REMARK   57  A    between atoms: _166  and  _167
REMARK   58  A    between atoms: _166  and  _169
REMARK   59  A    between atoms: _169  and  _170
REMARK   60  A    between atoms: _175  and  _176
REMARK   61  A    between atoms: _178  and  _180
REMARK   62  A    between atoms: _180  and  _181
REMARK   63  A    between atoms: _180  and  _183
REMARK   64  A    between atoms: _183  and  _184
REMARK   65  A    between atoms: _187  and  _189
REMARK   66  A    between atoms: _189  and  _190
REMARK   67  A    between atoms: _189  and  _192
REMARK   68  A    between atoms: _192  and  _193
REMARK   69  A    between atoms: _196  and  _198
REMARK   70  A    between atoms: _198  and  _199
REMARK   71  A    between atoms: _198  and  _201
REMARK   72  A    between atoms: _201  and  _202
REMARK   73  A    between atoms: _205  and  _207
REMARK   74  A    between atoms: _207  and  _208
REMARK   75  A    between atoms: _207  and  _210
REMARK   76  A    between atoms: _210  and  _211
REMARK   77  A    between atoms: _217  and  _219
REMARK   78  A    between atoms: _219  and  _220
REMARK   79  A    between atoms: _219  and  _222
REMARK   80  A    between atoms: _222  and  _223
REMARK   81  A    between atoms: _228  and  _229
REMARK   82  A    between atoms: _231  and  _233
REMARK   83  A    between atoms: _233  and  _234
REMARK   84  A    between atoms: _233  and  _236
REMARK   85  A    between atoms: _236  and  _237
REMARK   86  A    between atoms: _247  and  _249
REMARK   87  A    between atoms: _249  and  _250
REMARK   88  A    between atoms: _249  and  _252
REMARK   89  A    between atoms: _252  and  _253
REMARK   90  A    between atoms: _258  and  _260
REMARK   91  A    between atoms: _260  and  _261
REMARK   92  A    between atoms: _260  and  _263
REMARK   93  A    between atoms: _263  and  _264
REMARK   94  A    between atoms: _268  and  ZN_358
REMARK   95  A    between atoms: _269  and  _271
REMARK   96  A    between atoms: _271  and  _272
REMARK   97  A    between atoms: _271  and  _274
REMARK   98  A    between atoms: _274  and  _275
REMARK   99  A    between atoms: _278  and  _280
REMARK  100  A    between atoms: _280  and  _281
REMARK  101  A    between atoms: _283  and  _285
REMARK  102  A    between atoms: _285  and  _286
REMARK  103  A    between atoms: _285  and  _288
REMARK  104  A    between atoms: _288  and  _289
REMARK  105  A    between atoms: _292  and  _294
REMARK  106  A    between atoms: _294  and  _295
REMARK  107  A    between atoms: _294  and  _297
REMARK  108  A    between atoms: _297  and  _298
REMARK  109  A    between atoms: _301  and  _303
REMARK  110  A    between atoms: _303  and  _304
REMARK  111  A    between atoms: _307  and  _309
REMARK  112  A    between atoms: _309  and  _310
REMARK  113  A    between atoms: _313  and  _315
REMARK  114  A    between atoms: _315  and  _316
REMARK  115  A    between atoms: _315  and  _318
REMARK  116  A    between atoms: _318  and  _319
REMARK  117  A    between atoms: _324  and  _325
REMARK  118  A    between atoms: _327  and  _329
REMARK  119  A    between atoms: _329  and  _330
REMARK  120  A    between atoms: _329  and  _332
REMARK  121  A    between atoms: _332  and  _333
REMARK  122  A    between atoms: _333  and  _334
REMARK  123  A    between atoms: _334  and  _335
REMARK  124  A    between atoms: _344  and  _346
REMARK  125  A    between atoms: _346  and  _347
REMARK  126  A    between atoms: _349  and  _351
REMARK  127  A    between atoms: _351  and  _352
REMARK  128  A    between atoms: _351  and  _354
REMARK  129  A    between atoms: _354  and  _355
REMARK                            x       y       z     vdW  Elec       q    Type
REMARK                         _______ _______ _______ _____ _____    ______ ____
ROOT
ATOM      1  O   HOH     1      24.704  61.224   9.135  0.00  0.00    +0.000 OA
ENDROOT
TORSDOF 0
REMARK  Name = ../refined-set-2016/3dx1/3dx1_pocket.pdb
REMARK  129 active torsions:
REMARK  status: ('A' for Active; 'I' for Inactive)
REMARK    1  A    between atoms: _1  and  _3
REMARK    2  A    between atoms: _14  and  _17
REMARK    3  A    between atoms: _17  and  _18
REMARK    4  A    between atoms: _25  and  _26
REMARK    5  A    between atoms: _33  and  _34
REMARK    6  A    between atoms: _39  and  _41
REMARK    7  A    between atoms: _41  and  _42
REMARK    8  A    between atoms: _44  and  _46
REMARK    9  A    between atoms: _46  and  _47
REMARK   10  A    between atoms: _46  and  _49
REMARK   11  A    between atoms: _49  and  _50
REMARK   12  A    between atoms: _60  and  _62
REMARK   13  A    between atoms: _62  and  _63
REMARK   14  A    between atoms: _62  and  _65
REMARK   15  A    between atoms: _65  and  _66
REMARK   16  A    between atoms: _69  and  _71
REMARK   17  A    between atoms: _71  and  _72
REMARK   18  A    between atoms: _71  and  _74
REMARK   19  A    between atoms: _74  and  _75
REMARK   20  A    between atoms: _80  and  _81
REMARK   21  A    between atoms: _83  and  _85
REMARK   22  A    between atoms: _85  and  _86
REMARK   23  A    between atoms: _85  and  _88
REMARK   24  A    between atoms: _88  and  _89
REMARK   25  A    between atoms: _89  and  _90
REMARK   26  A    between atoms: _93  and  _95
REMARK   27  A    between atoms: _95  and  _96
REMARK   28  A    between atoms: _95  and  _98
REMARK   29  A    between atoms: _98  and  _99
REMARK   30  A    between atoms: _99  and  _100
REMARK   31  A    between atoms: _102  and  _104
REMARK   32  A    between atoms: _104  and  _105
REMARK   33  A    between atoms: _104  and  _107
REMARK   34  A    between atoms: _107  and  _108
REMARK   35  A    between atoms: _111  and  _113
REMARK   36  A    between atoms: _113  and  _114
REMARK   37  A    between atoms: _113  and  _116
REMARK   38  A    between atoms: _116  and  _117
REMARK   39  A    between atoms: _117  and  _119
REMARK   40  A    between atoms: _119  and  ZN_358
REMARK   41  A    between atoms: _121  and  _122
REMARK   42  A    between atoms: _127  and  _129
REMARK   43  A    between atoms: _129  and  _130
REMARK   44  A    between atoms: _129  and  _132
REMARK   45  A    between atoms: _132  and  _133
REMARK   46  A    between atoms: _139  and  _141
REMARK   47  A    between atoms: _141  and  _142
REMARK   48  A    between atoms: _141  and  _144
REMARK   49  A    between atoms: _144  and  _145
REMARK   50  A    between atoms: _145  and  _146
REMARK   51  A    between atoms: _146  and  _147
REMARK   52  A    between atoms: _156  and  _158
REMARK   53  A    between atoms: _158  and  _159
REMARK   54  A    between atoms: _158  and  _161
REMARK   55  A    between atoms: _161  and  _162
REMARK   56  A    between atoms: _164  and  _166
REMARK   57  A    between atoms: _166  and  _167
REMARK   58  A    between atoms: _166  and  _169
REMARK   59  A    between atoms: _169  and  _170
REMARK   60  A    between atoms: _175  and  _176
REMARK   61  A    between atoms: _178  and  _180
REMARK   62  A    between atoms: _180  and  _181
REMARK   63  A    between atoms: _180  and  _183
REMARK   64  A    between atoms: _183  and  _184
REMARK   65  A    between atoms: _187  and  _189
REMARK   66  A    between atoms: _189  and  _190
REMARK   67  A    between atoms: _189  and  _192
REMARK   68  A    between atoms: _192  and  _193
REMARK   69  A    between atoms: _196  and  _198
REMARK   70  A    between atoms: _198  and  _199
REMARK   71  A    between atoms: _198  and  _201
REMARK   72  A    between atoms: _201  and  _202
REMARK   73  A    between atoms: _205  and  _207
REMARK   74  A    between atoms: _207  and  _208
REMARK   75  A    between atoms: _207  and  _210
REMARK   76  A    between atoms: _210  and  _211
REMARK   77  A    between atoms: _217  and  _219
REMARK   78  A    between atoms: _219  and  _220
REMARK   79  A    between atoms: _219  and  _222
REMARK   80  A    between atoms: _222  and  _223
REMARK   81  A    between atoms: _228  and  _229
REMARK   82  A    between atoms: _231  and  _233
REMARK   83  A    between atoms: _233  and  _234
REMARK   84  A    between atoms: _233  and  _236
REMARK   85  A    between atoms: _236  and  _237
REMARK   86  A    between atoms: _247  and  _249
REMARK   87  A    between atoms: _249  and  _250
REMARK   88  A    between atoms: _249  and  _252
REMARK   89  A    between atoms: _252  and  _253
REMARK   90  A    between atoms: _258  and  _260
REMARK   91  A    between atoms: _260  and  _261
REMARK   92  A    between atoms: _260  and  _263
REMARK   93  A    between atoms: _263  and  _264
REMARK   94  A    between atoms: _268  and  ZN_358
REMARK   95  A    between atoms: _269  and  _271
REMARK   96  A    between atoms: _271  and  _272
REMARK   97  A    between atoms: _271  and  _274
REMARK   98  A    between atoms: _274  and  _275
REMARK   99  A    between atoms: _278  and  _280
REMARK  100  A    between atoms: _280  and  _281
REMARK  101  A    between atoms: _283  and  _285
REMARK  102  A    between atoms: _285  and  _286
REMARK  103  A    between atoms: _285  and  _288
REMARK  104  A    between atoms: _288  and  _289
REMARK  105  A    between atoms: _292  and  _294
REMARK  106  A    between atoms: _294  and  _295
REMARK  107  A    between atoms: _294  and  _297
REMARK  108  A    between atoms: _297  and  _298
REMARK  109  A    between atoms: _301  and  _303
REMARK  110  A    between atoms: _303  and  _304
REMARK  111  A    between atoms: _307  and  _309
REMARK  112  A    between atoms: _309  and  _310
REMARK  113  A    between atoms: _313  and  _315
REMARK  114  A    between atoms: _315  and  _316
REMARK  115  A    between atoms: _315  and  _318
REMARK  116  A    between atoms: _318  and  _319
REMARK  117  A    between atoms: _324  and  _325
REMARK  118  A    between atoms: _327  and  _329
REMARK  119  A    between atoms: _329  and  _330
REMARK  120  A    between atoms: _329  and  _332
REMARK  121  A    between atoms: _332  and  _333
REMARK  122  A    between atoms: _333  and  _334
REMARK  123  A    between atoms: _334  and  _335
REMARK  124  A    between atoms: _344  and  _346
REMARK  125  A    between atoms: _346  and  _347
REMARK  126  A    between atoms: _349  and  _351
REMARK  127  A    between atoms: _351  and  _352
REMARK  128  A    between atoms: _351  and  _354
REMARK  129  A    between atoms: _354  and  _355
REMARK                            x       y       z     vdW  Elec       q    Type
REMARK                         _______ _______ _______ _____ _____    ______ ____
ROOT
ATOM      1  O   HOH     1      24.325  63.333   7.522  0.00  0.00    +0.000 OA
ENDROOT
TORSDOF 0
REMARK  Name = ../refined-set-2016/3dx1/3dx1_pocket.pdb
REMARK  129 active torsions:
REMARK  status: ('A' for Active; 'I' for Inactive)
REMARK    1  A    between atoms: _1  and  _3
REMARK    2  A    between atoms: _14  and  _17
REMARK    3  A    between atoms: _17  and  _18
REMARK    4  A    between atoms: _25  and  _26
REMARK    5  A    between atoms: _33  and  _34
REMARK    6  A    between atoms: _39  and  _41
REMARK    7  A    between atoms: _41  and  _42
REMARK    8  A    between atoms: _44  and  _46
REMARK    9  A    between atoms: _46  and  _47
REMARK   10  A    between atoms: _46  and  _49
REMARK   11  A    between atoms: _49  and  _50
REMARK   12  A    between atoms: _60  and  _62
REMARK   13  A    between atoms: _62  and  _63
REMARK   14  A    between atoms: _62  and  _65
REMARK   15  A    between atoms: _65  and  _66
REMARK   16  A    between atoms: _69  and  _71
REMARK   17  A    between atoms: _71  and  _72
REMARK   18  A    between atoms: _71  and  _74
REMARK   19  A    between atoms: _74  and  _75
REMARK   20  A    between atoms: _80  and  _81
REMARK   21  A    between atoms: _83  and  _85
REMARK   22  A    between atoms: _85  and  _86
REMARK   23  A    between atoms: _85  and  _88
REMARK   24  A    between atoms: _88  and  _89
REMARK   25  A    between atoms: _89  and  _90
REMARK   26  A    between atoms: _93  and  _95
REMARK   27  A    between atoms: _95  and  _96
REMARK   28  A    between atoms: _95  and  _98
REMARK   29  A    between atoms: _98  and  _99
REMARK   30  A    between atoms: _99  and  _100
REMARK   31  A    between atoms: _102  and  _104
REMARK   32  A    between atoms: _104  and  _105
REMARK   33  A    between atoms: _104  and  _107
REMARK   34  A    between atoms: _107  and  _108
REMARK   35  A    between atoms: _111  and  _113
REMARK   36  A    between atoms: _113  and  _114
REMARK   37  A    between atoms: _113  and  _116
REMARK   38  A    between atoms: _116  and  _117
REMARK   39  A    between atoms: _117  and  _119
REMARK   40  A    between atoms: _119  and  ZN_358
REMARK   41  A    between atoms: _121  and  _122
REMARK   42  A    between atoms: _127  and  _129
REMARK   43  A    between atoms: _129  and  _130
REMARK   44  A    between atoms: _129  and  _132
REMARK   45  A    between atoms: _132  and  _133
REMARK   46  A    between atoms: _139  and  _141
REMARK   47  A    between atoms: _141  and  _142
REMARK   48  A    between atoms: _141  and  _144
REMARK   49  A    between atoms: _144  and  _145
REMARK   50  A    between atoms: _145  and  _146
REMARK   51  A    between atoms: _146  and  _147
REMARK   52  A    between atoms: _156  and  _158
REMARK   53  A    between atoms: _158  and  _159
REMARK   54  A    between atoms: _158  and  _161
REMARK   55  A    between atoms: _161  and  _162
REMARK   56  A    between atoms: _164  and  _166
REMARK   57  A    between atoms: _166  and  _167
REMARK   58  A    between atoms: _166  and  _169
REMARK   59  A    between atoms: _169  and  _170
REMARK   60  A    between atoms: _175  and  _176
REMARK   61  A    between atoms: _178  and  _180
REMARK   62  A    between atoms: _180  and  _181
REMARK   63  A    between atoms: _180  and  _183
REMARK   64  A    between atoms: _183  and  _184
REMARK   65  A    between atoms: _187  and  _189
REMARK   66  A    between atoms: _189  and  _190
REMARK   67  A    between atoms: _189  and  _192
REMARK   68  A    between atoms: _192  and  _193
REMARK   69  A    between atoms: _196  and  _198
REMARK   70  A    between atoms: _198  and  _199
REMARK   71  A    between atoms: _198  and  _201
REMARK   72  A    between atoms: _201  and  _202
REMARK   73  A    between atoms: _205  and  _207
REMARK   74  A    between atoms: _207  and  _208
REMARK   75  A    between atoms: _207  and  _210
REMARK   76  A    between atoms: _210  and  _211
REMARK   77  A    between atoms: _217  and  _219
REMARK   78  A    between atoms: _219  and  _220
REMARK   79  A    between atoms: _219  and  _222
REMARK   80  A    between atoms: _222  and  _223
REMARK   81  A    between atoms: _228  and  _229
REMARK   82  A    between atoms: _231  and  _233
REMARK   83  A    between atoms: _233  and  _234
REMARK   84  A    between atoms: _233  and  _236
REMARK   85  A    between atoms: _236  and  _237
REMARK   86  A    between atoms: _247  and  _249
REMARK   87  A    between atoms: _249  and  _250
REMARK   88  A    between atoms: _249  and  _252
REMARK   89  A    between atoms: _252  and  _253
REMARK   90  A    between atoms: _258  and  _260
REMARK   91  A    between atoms: _260  and  _261
REMARK   92  A    between atoms: _260  and  _263
REMARK   93  A    between atoms: _263  and  _264
REMARK   94  A    between atoms: _268  and  ZN_358
REMARK   95  A    between atoms: _269  and  _271
REMARK   96  A    between atoms: _271  and  _272
REMARK   97  A    between atoms: _271  and  _274
REMARK   98  A    between atoms: _274  and  _275
REMARK   99  A    between atoms: _278  and  _280
REMARK  100  A    between atoms: _280  and  _281
REMARK  101  A    between atoms: _283  and  _285
REMARK  102  A    between atoms: _285  and  _286
REMARK  103  A    between atoms: _285  and  _288
REMARK  104  A    between atoms: _288  and  _289
REMARK  105  A    between atoms: _292  and  _294
REMARK  106  A    between atoms: _294  and  _295
REMARK  107  A    between atoms: _294  and  _297
REMARK  108  A    between atoms: _297  and  _298
REMARK  109  A    between atoms: _301  and  _303
REMARK  110  A    between atoms: _303  and  _304
REMARK  111  A    between atoms: _307  and  _309
REMARK  112  A    between atoms: _309  and  _310
REMARK  113  A    between atoms: _313  and  _315
REMARK  114  A    between atoms: _315  and  _316
REMARK  115  A    between atoms: _315  and  _318
REMARK  116  A    between atoms: _318  and  _319
REMARK  117  A    between atoms: _324  and  _325
REMARK  118  A    between atoms: _327  and  _329
REMARK  119  A    between atoms: _329  and  _330
REMARK  120  A    between atoms: _329  and  _332
REMARK  121  A    between atoms: _332  and  _333
REMARK  122  A    between atoms: _333  and  _334
REMARK  123  A    between atoms: _334  and  _335
REMARK  124  A    between atoms: _344  and  _346
REMARK  125  A    between atoms: _346  and  _347
REMARK  126  A    between atoms: _349  and  _351
REMARK  127  A    between atoms: _351  and  _352
REMARK  128  A    between atoms: _351  and  _354
REMARK  129  A    between atoms: _354  and  _355
REMARK                            x       y       z     vdW  Elec       q    Type
REMARK                         _______ _______ _______ _____ _____    ______ ____
ROOT
ATOM      1  O   HOH     1      28.096  64.217   9.737  0.00  0.00    +0.000 OA
ENDROOT
TORSDOF 0
REMARK  Name = ../refined-set-2016/3dx1/3dx1_pocket.pdb
REMARK  129 active torsions:
REMARK  status: ('A' for Active; 'I' for Inactive)
REMARK    1  A    between atoms: _1  and  _3
REMARK    2  A    between atoms: _14  and  _17
REMARK    3  A    between atoms: _17  and  _18
REMARK    4  A    between atoms: _25  and  _26
REMARK    5  A    between atoms: _33  and  _34
REMARK    6  A    between atoms: _39  and  _41
REMARK    7  A    between atoms: _41  and  _42
REMARK    8  A    between atoms: _44  and  _46
REMARK    9  A    between atoms: _46  and  _47
REMARK   10  A    between atoms: _46  and  _49
REMARK   11  A    between atoms: _49  and  _50
REMARK   12  A    between atoms: _60  and  _62
REMARK   13  A    between atoms: _62  and  _63
REMARK   14  A    between atoms: _62  and  _65
REMARK   15  A    between atoms: _65  and  _66
REMARK   16  A    between atoms: _69  and  _71
REMARK   17  A    between atoms: _71  and  _72
REMARK   18  A    between atoms: _71  and  _74
REMARK   19  A    between atoms: _74  and  _75
REMARK   20  A    between atoms: _80  and  _81
REMARK   21  A    between atoms: _83  and  _85
REMARK   22  A    between atoms: _85  and  _86
REMARK   23  A    between atoms: _85  and  _88
REMARK   24  A    between atoms: _88  and  _89
REMARK   25  A    between atoms: _89  and  _90
REMARK   26  A    between atoms: _93  and  _95
REMARK   27  A    between atoms: _95  and  _96
REMARK   28  A    between atoms: _95  and  _98
REMARK   29  A    between atoms: _98  and  _99
REMARK   30  A    between atoms: _99  and  _100
REMARK   31  A    between atoms: _102  and  _104
REMARK   32  A    between atoms: _104  and  _105
REMARK   33  A    between atoms: _104  and  _107
REMARK   34  A    between atoms: _107  and  _108
REMARK   35  A    between atoms: _111  and  _113
REMARK   36  A    between atoms: _113  and  _114
REMARK   37  A    between atoms: _113  and  _116
REMARK   38  A    between atoms: _116  and  _117
REMARK   39  A    between atoms: _117  and  _119
REMARK   40  A    between atoms: _119  and  ZN_358
REMARK   41  A    between atoms: _121  and  _122
REMARK   42  A    between atoms: _127  and  _129
REMARK   43  A    between atoms: _129  and  _130
REMARK   44  A    between atoms: _129  and  _132
REMARK   45  A    between atoms: _132  and  _133
REMARK   46  A    between atoms: _139  and  _141
REMARK   47  A    between atoms: _141  and  _142
REMARK   48  A    between atoms: _141  and  _144
REMARK   49  A    between atoms: _144  and  _145
REMARK   50  A    between atoms: _145  and  _146
REMARK   51  A    between atoms: _146  and  _147
REMARK   52  A    between atoms: _156  and  _158
REMARK   53  A    between atoms: _158  and  _159
REMARK   54  A    between atoms: _158  and  _161
REMARK   55  A    between atoms: _161  and  _162
REMARK   56  A    between atoms: _164  and  _166
REMARK   57  A    between atoms: _166  and  _167
REMARK   58  A    between atoms: _166  and  _169
REMARK   59  A    between atoms: _169  and  _170
REMARK   60  A    between atoms: _175  and  _176
REMARK   61  A    between atoms: _178  and  _180
REMARK   62  A    between atoms: _180  and  _181
REMARK   63  A    between atoms: _180  and  _183
REMARK   64  A    between atoms: _183  and  _184
REMARK   65  A    between atoms: _187  and  _189
REMARK   66  A    between atoms: _189  and  _190
REMARK   67  A    between atoms: _189  and  _192
REMARK   68  A    between atoms: _192  and  _193
REMARK   69  A    between atoms: _196  and  _198
REMARK   70  A    between atoms: _198  and  _199
REMARK   71  A    between atoms: _198  and  _201
REMARK   72  A    between atoms: _201  and  _202
REMARK   73  A    between atoms: _205  and  _207
REMARK   74  A    between atoms: _207  and  _208
REMARK   75  A    between atoms: _207  and  _210
REMARK   76  A    between atoms: _210  and  _211
REMARK   77  A    between atoms: _217  and  _219
REMARK   78  A    between atoms: _219  and  _220
REMARK   79  A    between atoms: _219  and  _222
REMARK   80  A    between atoms: _222  and  _223
REMARK   81  A    between atoms: _228  and  _229
REMARK   82  A    between atoms: _231  and  _233
REMARK   83  A    between atoms: _233  and  _234
REMARK   84  A    between atoms: _233  and  _236
REMARK   85  A    between atoms: _236  and  _237
REMARK   86  A    between atoms: _247  and  _249
REMARK   87  A    between atoms: _249  and  _250
REMARK   88  A    between atoms: _249  and  _252
REMARK   89  A    between atoms: _252  and  _253
REMARK   90  A    between atoms: _258  and  _260
REMARK   91  A    between atoms: _260  and  _261
REMARK   92  A    between atoms: _260  and  _263
REMARK   93  A    between atoms: _263  and  _264
REMARK   94  A    between atoms: _268  and  ZN_358
REMARK   95  A    between atoms: _269  and  _271
REMARK   96  A    between atoms: _271  and  _272
REMARK   97  A    between atoms: _271  and  _274
REMARK   98  A    between atoms: _274  and  _275
REMARK   99  A    between atoms: _278  and  _280
REMARK  100  A    between atoms: _280  and  _281
REMARK  101  A    between atoms: _283  and  _285
REMARK  102  A    between atoms: _285  and  _286
REMARK  103  A    between atoms: _285  and  _288
REMARK  104  A    between atoms: _288  and  _289
REMARK  105  A    between atoms: _292  and  _294
REMARK  106  A    between atoms: _294  and  _295
REMARK  107  A    between atoms: _294  and  _297
REMARK  108  A    between atoms: _297  and  _298
REMARK  109  A    between atoms: _301  and  _303
REMARK  110  A    between atoms: _303  and  _304
REMARK  111  A    between atoms: _307  and  _309
REMARK  112  A    between atoms: _309  and  _310
REMARK  113  A    between atoms: _313  and  _315
REMARK  114  A    between atoms: _315  and  _316
REMARK  115  A    between atoms: _315  and  _318
REMARK  116  A    between atoms: _318  and  _319
REMARK  117  A    between atoms: _324  and  _325
REMARK  118  A    between atoms: _327  and  _329
REMARK  119  A    between atoms: _329  and  _330
REMARK  120  A    between atoms: _329  and  _332
REMARK  121  A    between atoms: _332  and  _333
REMARK  122  A    between atoms: _333  and  _334
REMARK  123  A    between atoms: _334  and  _335
REMARK  124  A    between atoms: _344  and  _346
REMARK  125  A    between atoms: _346  and  _347
REMARK  126  A    between atoms: _349  and  _351
REMARK  127  A    between atoms: _351  and  _352
REMARK  128  A    between atoms: _351  and  _354
REMARK  129  A    between atoms: _354  and  _355
REMARK                            x       y       z     vdW  Elec       q    Type
REMARK                         _______ _______ _______ _____ _____    ______ ____
ROOT
ATOM      1  O   HOH     1      27.119  66.864   9.297  0.00  0.00    +0.000 OA
ENDROOT
TORSDOF 0
REMARK  Name = ../refined-set-2016/3dx1/3dx1_pocket.pdb
REMARK  129 active torsions:
REMARK  status: ('A' for Active; 'I' for Inactive)
REMARK    1  A    between atoms: _1  and  _3
REMARK    2  A    between atoms: _14  and  _17
REMARK    3  A    between atoms: _17  and  _18
REMARK    4  A    between atoms: _25  and  _26
REMARK    5  A    between atoms: _33  and  _34
REMARK    6  A    between atoms: _39  and  _41
REMARK    7  A    between atoms: _41  and  _42
REMARK    8  A    between atoms: _44  and  _46
REMARK    9  A    between atoms: _46  and  _47
REMARK   10  A    between atoms: _46  and  _49
REMARK   11  A    between atoms: _49  and  _50
REMARK   12  A    between atoms: _60  and  _62
REMARK   13  A    between atoms: _62  and  _63
REMARK   14  A    between atoms: _62  and  _65
REMARK   15  A    between atoms: _65  and  _66
REMARK   16  A    between atoms: _69  and  _71
REMARK   17  A    between atoms: _71  and  _72
REMARK   18  A    between atoms: _71  and  _74
REMARK   19  A    between atoms: _74  and  _75
REMARK   20  A    between atoms: _80  and  _81
REMARK   21  A    between atoms: _83  and  _85
REMARK   22  A    between atoms: _85  and  _86
REMARK   23  A    between atoms: _85  and  _88
REMARK   24  A    between atoms: _88  and  _89
REMARK   25  A    between atoms: _89  and  _90
REMARK   26  A    between atoms: _93  and  _95
REMARK   27  A    between atoms: _95  and  _96
REMARK   28  A    between atoms: _95  and  _98
REMARK   29  A    between atoms: _98  and  _99
REMARK   30  A    between atoms: _99  and  _100
REMARK   31  A    between atoms: _102  and  _104
REMARK   32  A    between atoms: _104  and  _105
REMARK   33  A    between atoms: _104  and  _107
REMARK   34  A    between atoms: _107  and  _108
REMARK   35  A    between atoms: _111  and  _113
REMARK   36  A    between atoms: _113  and  _114
REMARK   37  A    between atoms: _113  and  _116
REMARK   38  A    between atoms: _116  and  _117
REMARK   39  A    between atoms: _117  and  _119
REMARK   40  A    between atoms: _119  and  ZN_358
REMARK   41  A    between atoms: _121  and  _122
REMARK   42  A    between atoms: _127  and  _129
REMARK   43  A    between atoms: _129  and  _130
REMARK   44  A    between atoms: _129  and  _132
REMARK   45  A    between atoms: _132  and  _133
REMARK   46  A    between atoms: _139  and  _141
REMARK   47  A    between atoms: _141  and  _142
REMARK   48  A    between atoms: _141  and  _144
REMARK   49  A    between atoms: _144  and  _145
REMARK   50  A    between atoms: _145  and  _146
REMARK   51  A    between atoms: _146  and  _147
REMARK   52  A    between atoms: _156  and  _158
REMARK   53  A    between atoms: _158  and  _159
REMARK   54  A    between atoms: _158  and  _161
REMARK   55  A    between atoms: _161  and  _162
REMARK   56  A    between atoms: _164  and  _166
REMARK   57  A    between atoms: _166  and  _167
REMARK   58  A    between atoms: _166  and  _169
REMARK   59  A    between atoms: _169  and  _170
REMARK   60  A    between atoms: _175  and  _176
REMARK   61  A    between atoms: _178  and  _180
REMARK   62  A    between atoms: _180  and  _181
REMARK   63  A    between atoms: _180  and  _183
REMARK   64  A    between atoms: _183  and  _184
REMARK   65  A    between atoms: _187  and  _189
REMARK   66  A    between atoms: _189  and  _190
REMARK   67  A    between atoms: _189  and  _192
REMARK   68  A    between atoms: _192  and  _193
REMARK   69  A    between atoms: _196  and  _198
REMARK   70  A    between atoms: _198  and  _199
REMARK   71  A    between atoms: _198  and  _201
REMARK   72  A    between atoms: _201  and  _202
REMARK   73  A    between atoms: _205  and  _207
REMARK   74  A    between atoms: _207  and  _208
REMARK   75  A    between atoms: _207  and  _210
REMARK   76  A    between atoms: _210  and  _211
REMARK   77  A    between atoms: _217  and  _219
REMARK   78  A    between atoms: _219  and  _220
REMARK   79  A    between atoms: _219  and  _222
REMARK   80  A    between atoms: _222  and  _223
REMARK   81  A    between atoms: _228  and  _229
REMARK   82  A    between atoms: _231  and  _233
REMARK   83  A    between atoms: _233  and  _234
REMARK   84  A    between atoms: _233  and  _236
REMARK   85  A    between atoms: _236  and  _237
REMARK   86  A    between atoms: _247  and  _249
REMARK   87  A    between atoms: _249  and  _250
REMARK   88  A    between atoms: _249  and  _252
REMARK   89  A    between atoms: _252  and  _253
REMARK   90  A    between atoms: _258  and  _260
REMARK   91  A    between atoms: _260  and  _261
REMARK   92  A    between atoms: _260  and  _263
REMARK   93  A    between atoms: _263  and  _264
REMARK   94  A    between atoms: _268  and  ZN_358
REMARK   95  A    between atoms: _269  and  _271
REMARK   96  A    between atoms: _271  and  _272
REMARK   97  A    between atoms: _271  and  _274
REMARK   98  A    between atoms: _274  and  _275
REMARK   99  A    between atoms: _278  and  _280
REMARK  100  A    between atoms: _280  and  _281
REMARK  101  A    between atoms: _283  and  _285
REMARK  102  A    between atoms: _285  and  _286
REMARK  103  A    between atoms: _285  and  _288
REMARK  104  A    between atoms: _288  and  _289
REMARK  105  A    between atoms: _292  and  _294
REMARK  106  A    between atoms: _294  and  _295
REMARK  107  A    between atoms: _294  and  _297
REMARK  108  A    between atoms: _297  and  _298
REMARK  109  A    between atoms: _301  and  _303
REMARK  110  A    between atoms: _303  and  _304
REMARK  111  A    between atoms: _307  and  _309
REMARK  112  A    between atoms: _309  and  _310
REMARK  113  A    between atoms: _313  and  _315
REMARK  114  A    between atoms: _315  and  _316
REMARK  115  A    between atoms: _315  and  _318
REMARK  116  A    between atoms: _318  and  _319
REMARK  117  A    between atoms: _324  and  _325
REMARK  118  A    between atoms: _327  and  _329
REMARK  119  A    between atoms: _329  and  _330
REMARK  120  A    between atoms: _329  and  _332
REMARK  121  A    between atoms: _332  and  _333
REMARK  122  A    between atoms: _333  and  _334
REMARK  123  A    between atoms: _334  and  _335
REMARK  124  A    between atoms: _344  and  _346
REMARK  125  A    between atoms: _346  and  _347
REMARK  126  A    between atoms: _349  and  _351
REMARK  127  A    between atoms: _351  and  _352
REMARK  128  A    between atoms: _351  and  _354
REMARK  129  A    between atoms: _354  and  _355
REMARK                            x       y       z     vdW  Elec       q    Type
REMARK                         _______ _______ _______ _____ _____    ______ ____
ROOT
ATOM      1  O   HOH     1      26.058  72.653   5.695  0.00  0.00    +0.000 OA
ENDROOT
TORSDOF 0
REMARK  Name = ../refined-set-2016/3dx1/3dx1_pocket.pdb
REMARK  129 active torsions:
REMARK  status: ('A' for Active; 'I' for Inactive)
REMARK    1  A    between atoms: _1  and  _3
REMARK    2  A    between atoms: _14  and  _17
REMARK    3  A    between atoms: _17  and  _18
REMARK    4  A    between atoms: _25  and  _26
REMARK    5  A    between atoms: _33  and  _34
REMARK    6  A    between atoms: _39  and  _41
REMARK    7  A    between atoms: _41  and  _42
REMARK    8  A    between atoms: _44  and  _46
REMARK    9  A    between atoms: _46  and  _47
REMARK   10  A    between atoms: _46  and  _49
REMARK   11  A    between atoms: _49  and  _50
REMARK   12  A    between atoms: _60  and  _62
REMARK   13  A    between atoms: _62  and  _63
REMARK   14  A    between atoms: _62  and  _65
REMARK   15  A    between atoms: _65  and  _66
REMARK   16  A    between atoms: _69  and  _71
REMARK   17  A    between atoms: _71  and  _72
REMARK   18  A    between atoms: _71  and  _74
REMARK   19  A    between atoms: _74  and  _75
REMARK   20  A    between atoms: _80  and  _81
REMARK   21  A    between atoms: _83  and  _85
REMARK   22  A    between atoms: _85  and  _86
REMARK   23  A    between atoms: _85  and  _88
REMARK   24  A    between atoms: _88  and  _89
REMARK   25  A    between atoms: _89  and  _90
REMARK   26  A    between atoms: _93  and  _95
REMARK   27  A    between atoms: _95  and  _96
REMARK   28  A    between atoms: _95  and  _98
REMARK   29  A    between atoms: _98  and  _99
REMARK   30  A    between atoms: _99  and  _100
REMARK   31  A    between atoms: _102  and  _104
REMARK   32  A    between atoms: _104  and  _105
REMARK   33  A    between atoms: _104  and  _107
REMARK   34  A    between atoms: _107  and  _108
REMARK   35  A    between atoms: _111  and  _113
REMARK   36  A    between atoms: _113  and  _114
REMARK   37  A    between atoms: _113  and  _116
REMARK   38  A    between atoms: _116  and  _117
REMARK   39  A    between atoms: _117  and  _119
REMARK   40  A    between atoms: _119  and  ZN_358
REMARK   41  A    between atoms: _121  and  _122
REMARK   42  A    between atoms: _127  and  _129
REMARK   43  A    between atoms: _129  and  _130
REMARK   44  A    between atoms: _129  and  _132
REMARK   45  A    between atoms: _132  and  _133
REMARK   46  A    between atoms: _139  and  _141
REMARK   47  A    between atoms: _141  and  _142
REMARK   48  A    between atoms: _141  and  _144
REMARK   49  A    between atoms: _144  and  _145
REMARK   50  A    between atoms: _145  and  _146
REMARK   51  A    between atoms: _146  and  _147
REMARK   52  A    between atoms: _156  and  _158
REMARK   53  A    between atoms: _158  and  _159
REMARK   54  A    between atoms: _158  and  _161
REMARK   55  A    between atoms: _161  and  _162
REMARK   56  A    between atoms: _164  and  _166
REMARK   57  A    between atoms: _166  and  _167
REMARK   58  A    between atoms: _166  and  _169
REMARK   59  A    between atoms: _169  and  _170
REMARK   60  A    between atoms: _175  and  _176
REMARK   61  A    between atoms: _178  and  _180
REMARK   62  A    between atoms: _180  and  _181
REMARK   63  A    between atoms: _180  and  _183
REMARK   64  A    between atoms: _183  and  _184
REMARK   65  A    between atoms: _187  and  _189
REMARK   66  A    between atoms: _189  and  _190
REMARK   67  A    between atoms: _189  and  _192
REMARK   68  A    between atoms: _192  and  _193
REMARK   69  A    between atoms: _196  and  _198
REMARK   70  A    between atoms: _198  and  _199
REMARK   71  A    between atoms: _198  and  _201
REMARK   72  A    between atoms: _201  and  _202
REMARK   73  A    between atoms: _205  and  _207
REMARK   74  A    between atoms: _207  and  _208
REMARK   75  A    between atoms: _207  and  _210
REMARK   76  A    between atoms: _210  and  _211
REMARK   77  A    between atoms: _217  and  _219
REMARK   78  A    between atoms: _219  and  _220
REMARK   79  A    between atoms: _219  and  _222
REMARK   80  A    between atoms: _222  and  _223
REMARK   81  A    between atoms: _228  and  _229
REMARK   82  A    between atoms: _231  and  _233
REMARK   83  A    between atoms: _233  and  _234
REMARK   84  A    between atoms: _233  and  _236
REMARK   85  A    between atoms: _236  and  _237
REMARK   86  A    between atoms: _247  and  _249
REMARK   87  A    between atoms: _249  and  _250
REMARK   88  A    between atoms: _249  and  _252
REMARK   89  A    between atoms: _252  and  _253
REMARK   90  A    between atoms: _258  and  _260
REMARK   91  A    between atoms: _260  and  _261
REMARK   92  A    between atoms: _260  and  _263
REMARK   93  A    between atoms: _263  and  _264
REMARK   94  A    between atoms: _268  and  ZN_358
REMARK   95  A    between atoms: _269  and  _271
REMARK   96  A    between atoms: _271  and  _272
REMARK   97  A    between atoms: _271  and  _274
REMARK   98  A    between atoms: _274  and  _275
REMARK   99  A    between atoms: _278  and  _280
REMARK  100  A    between atoms: _280  and  _281
REMARK  101  A    between atoms: _283  and  _285
REMARK  102  A    between atoms: _285  and  _286
REMARK  103  A    between atoms: _285  and  _288
REMARK  104  A    between atoms: _288  and  _289
REMARK  105  A    between atoms: _292  and  _294
REMARK  106  A    between atoms: _294  and  _295
REMARK  107  A    between atoms: _294  and  _297
REMARK  108  A    between atoms: _297  and  _298
REMARK  109  A    between atoms: _301  and  _303
REMARK  110  A    between atoms: _303  and  _304
REMARK  111  A    between atoms: _307  and  _309
REMARK  112  A    between atoms: _309  and  _310
REMARK  113  A    between atoms: _313  and  _315
REMARK  114  A    between atoms: _315  and  _316
REMARK  115  A    between atoms: _315  and  _318
REMARK  116  A    between atoms: _318  and  _319
REMARK  117  A    between atoms: _324  and  _325
REMARK  118  A    between atoms: _327  and  _329
REMARK  119  A    between atoms: _329  and  _330
REMARK  120  A    between atoms: _329  and  _332
REMARK  121  A    between atoms: _332  and  _333
REMARK  122  A    between atoms: _333  and  _334
REMARK  123  A    between atoms: _334  and  _335
REMARK  124  A    between atoms: _344  and  _346
REMARK  125  A    between atoms: _346  and  _347
REMARK  126  A    between atoms: _349  and  _351
REMARK  127  A    between atoms: _351  and  _352
REMARK  128  A    between atoms: _351  and  _354
REMARK  129  A    between atoms: _354  and  _355
REMARK                            x       y       z     vdW  Elec       q    Type
REMARK                         _______ _______ _______ _____ _____    ______ ____
ROOT
ATOM      1  O   HOH     1      29.777  72.071  12.551  0.00  0.00    +0.000 OA
ENDROOT
TORSDOF 0
REMARK  Name = ../refined-set-2016/3dx1/3dx1_pocket.pdb
REMARK  129 active torsions:
REMARK  status: ('A' for Active; 'I' for Inactive)
REMARK    1  A    between atoms: _1  and  _3
REMARK    2  A    between atoms: _14  and  _17
REMARK    3  A    between atoms: _17  and  _18
REMARK    4  A    between atoms: _25  and  _26
REMARK    5  A    between atoms: _33  and  _34
REMARK    6  A    between atoms: _39  and  _41
REMARK    7  A    between atoms: _41  and  _42
REMARK    8  A    between atoms: _44  and  _46
REMARK    9  A    between atoms: _46  and  _47
REMARK   10  A    between atoms: _46  and  _49
REMARK   11  A    between atoms: _49  and  _50
REMARK   12  A    between atoms: _60  and  _62
REMARK   13  A    between atoms: _62  and  _63
REMARK   14  A    between atoms: _62  and  _65
REMARK   15  A    between atoms: _65  and  _66
REMARK   16  A    between atoms: _69  and  _71
REMARK   17  A    between atoms: _71  and  _72
REMARK   18  A    between atoms: _71  and  _74
REMARK   19  A    between atoms: _74  and  _75
REMARK   20  A    between atoms: _80  and  _81
REMARK   21  A    between atoms: _83  and  _85
REMARK   22  A    between atoms: _85  and  _86
REMARK   23  A    between atoms: _85  and  _88
REMARK   24  A    between atoms: _88  and  _89
REMARK   25  A    between atoms: _89  and  _90
REMARK   26  A    between atoms: _93  and  _95
REMARK   27  A    between atoms: _95  and  _96
REMARK   28  A    between atoms: _95  and  _98
REMARK   29  A    between atoms: _98  and  _99
REMARK   30  A    between atoms: _99  and  _100
REMARK   31  A    between atoms: _102  and  _104
REMARK   32  A    between atoms: _104  and  _105
REMARK   33  A    between atoms: _104  and  _107
REMARK   34  A    between atoms: _107  and  _108
REMARK   35  A    between atoms: _111  and  _113
REMARK   36  A    between atoms: _113  and  _114
REMARK   37  A    between atoms: _113  and  _116
REMARK   38  A    between atoms: _116  and  _117
REMARK   39  A    between atoms: _117  and  _119
REMARK   40  A    between atoms: _119  and  ZN_358
REMARK   41  A    between atoms: _121  and  _122
REMARK   42  A    between atoms: _127  and  _129
REMARK   43  A    between atoms: _129  and  _130
REMARK   44  A    between atoms: _129  and  _132
REMARK   45  A    between atoms: _132  and  _133
REMARK   46  A    between atoms: _139  and  _141
REMARK   47  A    between atoms: _141  and  _142
REMARK   48  A    between atoms: _141  and  _144
REMARK   49  A    between atoms: _144  and  _145
REMARK   50  A    between atoms: _145  and  _146
REMARK   51  A    between atoms: _146  and  _147
REMARK   52  A    between atoms: _156  and  _158
REMARK   53  A    between atoms: _158  and  _159
REMARK   54  A    between atoms: _158  and  _161
REMARK   55  A    between atoms: _161  and  _162
REMARK   56  A    between atoms: _164  and  _166
REMARK   57  A    between atoms: _166  and  _167
REMARK   58  A    between atoms: _166  and  _169
REMARK   59  A    between atoms: _169  and  _170
REMARK   60  A    between atoms: _175  and  _176
REMARK   61  A    between atoms: _178  and  _180
REMARK   62  A    between atoms: _180  and  _181
REMARK   63  A    between atoms: _180  and  _183
REMARK   64  A    between atoms: _183  and  _184
REMARK   65  A    between atoms: _187  and  _189
REMARK   66  A    between atoms: _189  and  _190
REMARK   67  A    between atoms: _189  and  _192
REMARK   68  A    between atoms: _192  and  _193
REMARK   69  A    between atoms: _196  and  _198
REMARK   70  A    between atoms: _198  and  _199
REMARK   71  A    between atoms: _198  and  _201
REMARK   72  A    between atoms: _201  and  _202
REMARK   73  A    between atoms: _205  and  _207
REMARK   74  A    between atoms: _207  and  _208
REMARK   75  A    between atoms: _207  and  _210
REMARK   76  A    between atoms: _210  and  _211
REMARK   77  A    between atoms: _217  and  _219
REMARK   78  A    between atoms: _219  and  _220
REMARK   79  A    between atoms: _219  and  _222
REMARK   80  A    between atoms: _222  and  _223
REMARK   81  A    between atoms: _228  and  _229
REMARK   82  A    between atoms: _231  and  _233
REMARK   83  A    between atoms: _233  and  _234
REMARK   84  A    between atoms: _233  and  _236
REMARK   85  A    between atoms: _236  and  _237
REMARK   86  A    between atoms: _247  and  _249
REMARK   87  A    between atoms: _249  and  _250
REMARK   88  A    between atoms: _249  and  _252
REMARK   89  A    between atoms: _252  and  _253
REMARK   90  A    between atoms: _258  and  _260
REMARK   91  A    between atoms: _260  and  _261
REMARK   92  A    between atoms: _260  and  _263
REMARK   93  A    between atoms: _263  and  _264
REMARK   94  A    between atoms: _268  and  ZN_358
REMARK   95  A    between atoms: _269  and  _271
REMARK   96  A    between atoms: _271  and  _272
REMARK   97  A    between atoms: _271  and  _274
REMARK   98  A    between atoms: _274  and  _275
REMARK   99  A    between atoms: _278  and  _280
REMARK  100  A    between atoms: _280  and  _281
REMARK  101  A    between atoms: _283  and  _285
REMARK  102  A    between atoms: _285  and  _286
REMARK  103  A    between atoms: _285  and  _288
REMARK  104  A    between atoms: _288  and  _289
REMARK  105  A    between atoms: _292  and  _294
REMARK  106  A    between atoms: _294  and  _295
REMARK  107  A    between atoms: _294  and  _297
REMARK  108  A    between atoms: _297  and  _298
REMARK  109  A    between atoms: _301  and  _303
REMARK  110  A    between atoms: _303  and  _304
REMARK  111  A    between atoms: _307  and  _309
REMARK  112  A    between atoms: _309  and  _310
REMARK  113  A    between atoms: _313  and  _315
REMARK  114  A    between atoms: _315  and  _316
REMARK  115  A    between atoms: _315  and  _318
REMARK  116  A    between atoms: _318  and  _319
REMARK  117  A    between atoms: _324  and  _325
REMARK  118  A    between atoms: _327  and  _329
REMARK  119  A    between atoms: _329  and  _330
REMARK  120  A    between atoms: _329  and  _332
REMARK  121  A    between atoms: _332  and  _333
REMARK  122  A    between atoms: _333  and  _334
REMARK  123  A    between atoms: _334  and  _335
REMARK  124  A    between atoms: _344  and  _346
REMARK  125  A    between atoms: _346  and  _347
REMARK  126  A    between atoms: _349  and  _351
REMARK  127  A    between atoms: _351  and  _352
REMARK  128  A    between atoms: _351  and  _354
REMARK  129  A    between atoms: _354  and  _355
REMARK                            x       y       z     vdW  Elec       q    Type
REMARK                         _______ _______ _______ _____ _____    ______ ____
ROOT
ATOM      1  O   HOH     1      31.983  71.609  13.805  0.00  0.00    +0.000 OA
ENDROOT
TORSDOF 0
REMARK  Name = ../refined-set-2016/3dx1/3dx1_pocket.pdb
REMARK  129 active torsions:
REMARK  status: ('A' for Active; 'I' for Inactive)
REMARK    1  A    between atoms: _1  and  _3
REMARK    2  A    between atoms: _14  and  _17
REMARK    3  A    between atoms: _17  and  _18
REMARK    4  A    between atoms: _25  and  _26
REMARK    5  A    between atoms: _33  and  _34
REMARK    6  A    between atoms: _39  and  _41
REMARK    7  A    between atoms: _41  and  _42
REMARK    8  A    between atoms: _44  and  _46
REMARK    9  A    between atoms: _46  and  _47
REMARK   10  A    between atoms: _46  and  _49
REMARK   11  A    between atoms: _49  and  _50
REMARK   12  A    between atoms: _60  and  _62
REMARK   13  A    between atoms: _62  and  _63
REMARK   14  A    between atoms: _62  and  _65
REMARK   15  A    between atoms: _65  and  _66
REMARK   16  A    between atoms: _69  and  _71
REMARK   17  A    between atoms: _71  and  _72
REMARK   18  A    between atoms: _71  and  _74
REMARK   19  A    between atoms: _74  and  _75
REMARK   20  A    between atoms: _80  and  _81
REMARK   21  A    between atoms: _83  and  _85
REMARK   22  A    between atoms: _85  and  _86
REMARK   23  A    between atoms: _85  and  _88
REMARK   24  A    between atoms: _88  and  _89
REMARK   25  A    between atoms: _89  and  _90
REMARK   26  A    between atoms: _93  and  _95
REMARK   27  A    between atoms: _95  and  _96
REMARK   28  A    between atoms: _95  and  _98
REMARK   29  A    between atoms: _98  and  _99
REMARK   30  A    between atoms: _99  and  _100
REMARK   31  A    between atoms: _102  and  _104
REMARK   32  A    between atoms: _104  and  _105
REMARK   33  A    between atoms: _104  and  _107
REMARK   34  A    between atoms: _107  and  _108
REMARK   35  A    between atoms: _111  and  _113
REMARK   36  A    between atoms: _113  and  _114
REMARK   37  A    between atoms: _113  and  _116
REMARK   38  A    between atoms: _116  and  _117
REMARK   39  A    between atoms: _117  and  _119
REMARK   40  A    between atoms: _119  and  ZN_358
REMARK   41  A    between atoms: _121  and  _122
REMARK   42  A    between atoms: _127  and  _129
REMARK   43  A    between atoms: _129  and  _130
REMARK   44  A    between atoms: _129  and  _132
REMARK   45  A    between atoms: _132  and  _133
REMARK   46  A    between atoms: _139  and  _141
REMARK   47  A    between atoms: _141  and  _142
REMARK   48  A    between atoms: _141  and  _144
REMARK   49  A    between atoms: _144  and  _145
REMARK   50  A    between atoms: _145  and  _146
REMARK   51  A    between atoms: _146  and  _147
REMARK   52  A    between atoms: _156  and  _158
REMARK   53  A    between atoms: _158  and  _159
REMARK   54  A    between atoms: _158  and  _161
REMARK   55  A    between atoms: _161  and  _162
REMARK   56  A    between atoms: _164  and  _166
REMARK   57  A    between atoms: _166  and  _167
REMARK   58  A    between atoms: _166  and  _169
REMARK   59  A    between atoms: _169  and  _170
REMARK   60  A    between atoms: _175  and  _176
REMARK   61  A    between atoms: _178  and  _180
REMARK   62  A    between atoms: _180  and  _181
REMARK   63  A    between atoms: _180  and  _183
REMARK   64  A    between atoms: _183  and  _184
REMARK   65  A    between atoms: _187  and  _189
REMARK   66  A    between atoms: _189  and  _190
REMARK   67  A    between atoms: _189  and  _192
REMARK   68  A    between atoms: _192  and  _193
REMARK   69  A    between atoms: _196  and  _198
REMARK   70  A    between atoms: _198  and  _199
REMARK   71  A    between atoms: _198  and  _201
REMARK   72  A    between atoms: _201  and  _202
REMARK   73  A    between atoms: _205  and  _207
REMARK   74  A    between atoms: _207  and  _208
REMARK   75  A    between atoms: _207  and  _210
REMARK   76  A    between atoms: _210  and  _211
REMARK   77  A    between atoms: _217  and  _219
REMARK   78  A    between atoms: _219  and  _220
REMARK   79  A    between atoms: _219  and  _222
REMARK   80  A    between atoms: _222  and  _223
REMARK   81  A    between atoms: _228  and  _229
REMARK   82  A    between atoms: _231  and  _233
REMARK   83  A    between atoms: _233  and  _234
REMARK   84  A    between atoms: _233  and  _236
REMARK   85  A    between atoms: _236  and  _237
REMARK   86  A    between atoms: _247  and  _249
REMARK   87  A    between atoms: _249  and  _250
REMARK   88  A    between atoms: _249  and  _252
REMARK   89  A    between atoms: _252  and  _253
REMARK   90  A    between atoms: _258  and  _260
REMARK   91  A    between atoms: _260  and  _261
REMARK   92  A    between atoms: _260  and  _263
REMARK   93  A    between atoms: _263  and  _264
REMARK   94  A    between atoms: _268  and  ZN_358
REMARK   95  A    between atoms: _269  and  _271
REMARK   96  A    between atoms: _271  and  _272
REMARK   97  A    between atoms: _271  and  _274
REMARK   98  A    between atoms: _274  and  _275
REMARK   99  A    between atoms: _278  and  _280
REMARK  100  A    between atoms: _280  and  _281
REMARK  101  A    between atoms: _283  and  _285
REMARK  102  A    between atoms: _285  and  _286
REMARK  103  A    between atoms: _285  and  _288
REMARK  104  A    between atoms: _288  and  _289
REMARK  105  A    between atoms: _292  and  _294
REMARK  106  A    between atoms: _294  and  _295
REMARK  107  A    between atoms: _294  and  _297
REMARK  108  A    between atoms: _297  and  _298
REMARK  109  A    between atoms: _301  and  _303
REMARK  110  A    between atoms: _303  and  _304
REMARK  111  A    between atoms: _307  and  _309
REMARK  112  A    between atoms: _309  and  _310
REMARK  113  A    between atoms: _313  and  _315
REMARK  114  A    between atoms: _315  and  _316
REMARK  115  A    between atoms: _315  and  _318
REMARK  116  A    between atoms: _318  and  _319
REMARK  117  A    between atoms: _324  and  _325
REMARK  118  A    between atoms: _327  and  _329
REMARK  119  A    between atoms: _329  and  _330
REMARK  120  A    between atoms: _329  and  _332
REMARK  121  A    between atoms: _332  and  _333
REMARK  122  A    between atoms: _333  and  _334
REMARK  123  A    between atoms: _334  and  _335
REMARK  124  A    between atoms: _344  and  _346
REMARK  125  A    between atoms: _346  and  _347
REMARK  126  A    between atoms: _349  and  _351
REMARK  127  A    between atoms: _351  and  _352
REMARK  128  A    between atoms: _351  and  _354
REMARK  129  A    between atoms: _354  and  _355
REMARK                            x       y       z     vdW  Elec       q    Type
REMARK                         _______ _______ _______ _____ _____    ______ ____
ROOT
ATOM      1  O   HOH     1      34.665  70.254  13.297  0.00  0.00    +0.000 OA
ENDROOT
TORSDOF 0
REMARK  Name = ../refined-set-2016/3dx1/3dx1_pocket.pdb
REMARK  129 active torsions:
REMARK  status: ('A' for Active; 'I' for Inactive)
REMARK    1  A    between atoms: _1  and  _3
REMARK    2  A    between atoms: _14  and  _17
REMARK    3  A    between atoms: _17  and  _18
REMARK    4  A    between atoms: _25  and  _26
REMARK    5  A    between atoms: _33  and  _34
REMARK    6  A    between atoms: _39  and  _41
REMARK    7  A    between atoms: _41  and  _42
REMARK    8  A    between atoms: _44  and  _46
REMARK    9  A    between atoms: _46  and  _47
REMARK   10  A    between atoms: _46  and  _49
REMARK   11  A    between atoms: _49  and  _50
REMARK   12  A    between atoms: _60  and  _62
REMARK   13  A    between atoms: _62  and  _63
REMARK   14  A    between atoms: _62  and  _65
REMARK   15  A    between atoms: _65  and  _66
REMARK   16  A    between atoms: _69  and  _71
REMARK   17  A    between atoms: _71  and  _72
REMARK   18  A    between atoms: _71  and  _74
REMARK   19  A    between atoms: _74  and  _75
REMARK   20  A    between atoms: _80  and  _81
REMARK   21  A    between atoms: _83  and  _85
REMARK   22  A    between atoms: _85  and  _86
REMARK   23  A    between atoms: _85  and  _88
REMARK   24  A    between atoms: _88  and  _89
REMARK   25  A    between atoms: _89  and  _90
REMARK   26  A    between atoms: _93  and  _95
REMARK   27  A    between atoms: _95  and  _96
REMARK   28  A    between atoms: _95  and  _98
REMARK   29  A    between atoms: _98  and  _99
REMARK   30  A    between atoms: _99  and  _100
REMARK   31  A    between atoms: _102  and  _104
REMARK   32  A    between atoms: _104  and  _105
REMARK   33  A    between atoms: _104  and  _107
REMARK   34  A    between atoms: _107  and  _108
REMARK   35  A    between atoms: _111  and  _113
REMARK   36  A    between atoms: _113  and  _114
REMARK   37  A    between atoms: _113  and  _116
REMARK   38  A    between atoms: _116  and  _117
REMARK   39  A    between atoms: _117  and  _119
REMARK   40  A    between atoms: _119  and  ZN_358
REMARK   41  A    between atoms: _121  and  _122
REMARK   42  A    between atoms: _127  and  _129
REMARK   43  A    between atoms: _129  and  _130
REMARK   44  A    between atoms: _129  and  _132
REMARK   45  A    between atoms: _132  and  _133
REMARK   46  A    between atoms: _139  and  _141
REMARK   47  A    between atoms: _141  and  _142
REMARK   48  A    between atoms: _141  and  _144
REMARK   49  A    between atoms: _144  and  _145
REMARK   50  A    between atoms: _145  and  _146
REMARK   51  A    between atoms: _146  and  _147
REMARK   52  A    between atoms: _156  and  _158
REMARK   53  A    between atoms: _158  and  _159
REMARK   54  A    between atoms: _158  and  _161
REMARK   55  A    between atoms: _161  and  _162
REMARK   56  A    between atoms: _164  and  _166
REMARK   57  A    between atoms: _166  and  _167
REMARK   58  A    between atoms: _166  and  _169
REMARK   59  A    between atoms: _169  and  _170
REMARK   60  A    between atoms: _175  and  _176
REMARK   61  A    between atoms: _178  and  _180
REMARK   62  A    between atoms: _180  and  _181
REMARK   63  A    between atoms: _180  and  _183
REMARK   64  A    between atoms: _183  and  _184
REMARK   65  A    between atoms: _187  and  _189
REMARK   66  A    between atoms: _189  and  _190
REMARK   67  A    between atoms: _189  and  _192
REMARK   68  A    between atoms: _192  and  _193
REMARK   69  A    between atoms: _196  and  _198
REMARK   70  A    between atoms: _198  and  _199
REMARK   71  A    between atoms: _198  and  _201
REMARK   72  A    between atoms: _201  and  _202
REMARK   73  A    between atoms: _205  and  _207
REMARK   74  A    between atoms: _207  and  _208
REMARK   75  A    between atoms: _207  and  _210
REMARK   76  A    between atoms: _210  and  _211
REMARK   77  A    between atoms: _217  and  _219
REMARK   78  A    between atoms: _219  and  _220
REMARK   79  A    between atoms: _219  and  _222
REMARK   80  A    between atoms: _222  and  _223
REMARK   81  A    between atoms: _228  and  _229
REMARK   82  A    between atoms: _231  and  _233
REMARK   83  A    between atoms: _233  and  _234
REMARK   84  A    between atoms: _233  and  _236
REMARK   85  A    between atoms: _236  and  _237
REMARK   86  A    between atoms: _247  and  _249
REMARK   87  A    between atoms: _249  and  _250
REMARK   88  A    between atoms: _249  and  _252
REMARK   89  A    between atoms: _252  and  _253
REMARK   90  A    between atoms: _258  and  _260
REMARK   91  A    between atoms: _260  and  _261
REMARK   92  A    between atoms: _260  and  _263
REMARK   93  A    between atoms: _263  and  _264
REMARK   94  A    between atoms: _268  and  ZN_358
REMARK   95  A    between atoms: _269  and  _271
REMARK   96  A    between atoms: _271  and  _272
REMARK   97  A    between atoms: _271  and  _274
REMARK   98  A    between atoms: _274  and  _275
REMARK   99  A    between atoms: _278  and  _280
REMARK  100  A    between atoms: _280  and  _281
REMARK  101  A    between atoms: _283  and  _285
REMARK  102  A    between atoms: _285  and  _286
REMARK  103  A    between atoms: _285  and  _288
REMARK  104  A    between atoms: _288  and  _289
REMARK  105  A    between atoms: _292  and  _294
REMARK  106  A    between atoms: _294  and  _295
REMARK  107  A    between atoms: _294  and  _297
REMARK  108  A    between atoms: _297  and  _298
REMARK  109  A    between atoms: _301  and  _303
REMARK  110  A    between atoms: _303  and  _304
REMARK  111  A    between atoms: _307  and  _309
REMARK  112  A    between atoms: _309  and  _310
REMARK  113  A    between atoms: _313  and  _315
REMARK  114  A    between atoms: _315  and  _316
REMARK  115  A    between atoms: _315  and  _318
REMARK  116  A    between atoms: _318  and  _319
REMARK  117  A    between atoms: _324  and  _325
REMARK  118  A    between atoms: _327  and  _329
REMARK  119  A    between atoms: _329  and  _330
REMARK  120  A    between atoms: _329  and  _332
REMARK  121  A    between atoms: _332  and  _333
REMARK  122  A    between atoms: _333  and  _334
REMARK  123  A    between atoms: _334  and  _335
REMARK  124  A    between atoms: _344  and  _346
REMARK  125  A    between atoms: _346  and  _347
REMARK  126  A    between atoms: _349  and  _351
REMARK  127  A    between atoms: _351  and  _352
REMARK  128  A    between atoms: _351  and  _354
REMARK  129  A    between atoms: _354  and  _355
REMARK                            x       y       z     vdW  Elec       q    Type
REMARK                         _______ _______ _______ _____ _____    ______ ____
ROOT
ATOM      1  O   HOH     1      34.202  67.585  12.485  0.00  0.00    +0.000 OA
ENDROOT
TORSDOF 0
REMARK  Name = ../refined-set-2016/3dx1/3dx1_pocket.pdb
REMARK  129 active torsions:
REMARK  status: ('A' for Active; 'I' for Inactive)
REMARK    1  A    between atoms: _1  and  _3
REMARK    2  A    between atoms: _14  and  _17
REMARK    3  A    between atoms: _17  and  _18
REMARK    4  A    between atoms: _25  and  _26
REMARK    5  A    between atoms: _33  and  _34
REMARK    6  A    between atoms: _39  and  _41
REMARK    7  A    between atoms: _41  and  _42
REMARK    8  A    between atoms: _44  and  _46
REMARK    9  A    between atoms: _46  and  _47
REMARK   10  A    between atoms: _46  and  _49
REMARK   11  A    between atoms: _49  and  _50
REMARK   12  A    between atoms: _60  and  _62
REMARK   13  A    between atoms: _62  and  _63
REMARK   14  A    between atoms: _62  and  _65
REMARK   15  A    between atoms: _65  and  _66
REMARK   16  A    between atoms: _69  and  _71
REMARK   17  A    between atoms: _71  and  _72
REMARK   18  A    between atoms: _71  and  _74
REMARK   19  A    between atoms: _74  and  _75
REMARK   20  A    between atoms: _80  and  _81
REMARK   21  A    between atoms: _83  and  _85
REMARK   22  A    between atoms: _85  and  _86
REMARK   23  A    between atoms: _85  and  _88
REMARK   24  A    between atoms: _88  and  _89
REMARK   25  A    between atoms: _89  and  _90
REMARK   26  A    between atoms: _93  and  _95
REMARK   27  A    between atoms: _95  and  _96
REMARK   28  A    between atoms: _95  and  _98
REMARK   29  A    between atoms: _98  and  _99
REMARK   30  A    between atoms: _99  and  _100
REMARK   31  A    between atoms: _102  and  _104
REMARK   32  A    between atoms: _104  and  _105
REMARK   33  A    between atoms: _104  and  _107
REMARK   34  A    between atoms: _107  and  _108
REMARK   35  A    between atoms: _111  and  _113
REMARK   36  A    between atoms: _113  and  _114
REMARK   37  A    between atoms: _113  and  _116
REMARK   38  A    between atoms: _116  and  _117
REMARK   39  A    between atoms: _117  and  _119
REMARK   40  A    between atoms: _119  and  ZN_358
REMARK   41  A    between atoms: _121  and  _122
REMARK   42  A    between atoms: _127  and  _129
REMARK   43  A    between atoms: _129  and  _130
REMARK   44  A    between atoms: _129  and  _132
REMARK   45  A    between atoms: _132  and  _133
REMARK   46  A    between atoms: _139  and  _141
REMARK   47  A    between atoms: _141  and  _142
REMARK   48  A    between atoms: _141  and  _144
REMARK   49  A    between atoms: _144  and  _145
REMARK   50  A    between atoms: _145  and  _146
REMARK   51  A    between atoms: _146  and  _147
REMARK   52  A    between atoms: _156  and  _158
REMARK   53  A    between atoms: _158  and  _159
REMARK   54  A    between atoms: _158  and  _161
REMARK   55  A    between atoms: _161  and  _162
REMARK   56  A    between atoms: _164  and  _166
REMARK   57  A    between atoms: _166  and  _167
REMARK   58  A    between atoms: _166  and  _169
REMARK   59  A    between atoms: _169  and  _170
REMARK   60  A    between atoms: _175  and  _176
REMARK   61  A    between atoms: _178  and  _180
REMARK   62  A    between atoms: _180  and  _181
REMARK   63  A    between atoms: _180  and  _183
REMARK   64  A    between atoms: _183  and  _184
REMARK   65  A    between atoms: _187  and  _189
REMARK   66  A    between atoms: _189  and  _190
REMARK   67  A    between atoms: _189  and  _192
REMARK   68  A    between atoms: _192  and  _193
REMARK   69  A    between atoms: _196  and  _198
REMARK   70  A    between atoms: _198  and  _199
REMARK   71  A    between atoms: _198  and  _201
REMARK   72  A    between atoms: _201  and  _202
REMARK   73  A    between atoms: _205  and  _207
REMARK   74  A    between atoms: _207  and  _208
REMARK   75  A    between atoms: _207  and  _210
REMARK   76  A    between atoms: _210  and  _211
REMARK   77  A    between atoms: _217  and  _219
REMARK   78  A    between atoms: _219  and  _220
REMARK   79  A    between atoms: _219  and  _222
REMARK   80  A    between atoms: _222  and  _223
REMARK   81  A    between atoms: _228  and  _229
REMARK   82  A    between atoms: _231  and  _233
REMARK   83  A    between atoms: _233  and  _234
REMARK   84  A    between atoms: _233  and  _236
REMARK   85  A    between atoms: _236  and  _237
REMARK   86  A    between atoms: _247  and  _249
REMARK   87  A    between atoms: _249  and  _250
REMARK   88  A    between atoms: _249  and  _252
REMARK   89  A    between atoms: _252  and  _253
REMARK   90  A    between atoms: _258  and  _260
REMARK   91  A    between atoms: _260  and  _261
REMARK   92  A    between atoms: _260  and  _263
REMARK   93  A    between atoms: _263  and  _264
REMARK   94  A    between atoms: _268  and  ZN_358
REMARK   95  A    between atoms: _269  and  _271
REMARK   96  A    between atoms: _271  and  _272
REMARK   97  A    between atoms: _271  and  _274
REMARK   98  A    between atoms: _274  and  _275
REMARK   99  A    between atoms: _278  and  _280
REMARK  100  A    between atoms: _280  and  _281
REMARK  101  A    between atoms: _283  and  _285
REMARK  102  A    between atoms: _285  and  _286
REMARK  103  A    between atoms: _285  and  _288
REMARK  104  A    between atoms: _288  and  _289
REMARK  105  A    between atoms: _292  and  _294
REMARK  106  A    between atoms: _294  and  _295
REMARK  107  A    between atoms: _294  and  _297
REMARK  108  A    between atoms: _297  and  _298
REMARK  109  A    between atoms: _301  and  _303
REMARK  110  A    between atoms: _303  and  _304
REMARK  111  A    between atoms: _307  and  _309
REMARK  112  A    between atoms: _309  and  _310
REMARK  113  A    between atoms: _313  and  _315
REMARK  114  A    between atoms: _315  and  _316
REMARK  115  A    between atoms: _315  and  _318
REMARK  116  A    between atoms: _318  and  _319
REMARK  117  A    between atoms: _324  and  _325
REMARK  118  A    between atoms: _327  and  _329
REMARK  119  A    between atoms: _329  and  _330
REMARK  120  A    between atoms: _329  and  _332
REMARK  121  A    between atoms: _332  and  _333
REMARK  122  A    between atoms: _333  and  _334
REMARK  123  A    between atoms: _334  and  _335
REMARK  124  A    between atoms: _344  and  _346
REMARK  125  A    between atoms: _346  and  _347
REMARK  126  A    between atoms: _349  and  _351
REMARK  127  A    between atoms: _351  and  _352
REMARK  128  A    between atoms: _351  and  _354
REMARK  129  A    between atoms: _354  and  _355
REMARK                            x       y       z     vdW  Elec       q    Type
REMARK                         _______ _______ _______ _____ _____    ______ ____
ROOT
ATOM      1  O   HOH     1      30.221  67.286  13.515  0.00  0.00    +0.000 OA
ENDROOT
TORSDOF 0
REMARK  Name = ../refined-set-2016/3dx1/3dx1_pocket.pdb
REMARK  129 active torsions:
REMARK  status: ('A' for Active; 'I' for Inactive)
REMARK    1  A    between atoms: _1  and  _3
REMARK    2  A    between atoms: _14  and  _17
REMARK    3  A    between atoms: _17  and  _18
REMARK    4  A    between atoms: _25  and  _26
REMARK    5  A    between atoms: _33  and  _34
REMARK    6  A    between atoms: _39  and  _41
REMARK    7  A    between atoms: _41  and  _42
REMARK    8  A    between atoms: _44  and  _46
REMARK    9  A    between atoms: _46  and  _47
REMARK   10  A    between atoms: _46  and  _49
REMARK   11  A    between atoms: _49  and  _50
REMARK   12  A    between atoms: _60  and  _62
REMARK   13  A    between atoms: _62  and  _63
REMARK   14  A    between atoms: _62  and  _65
REMARK   15  A    between atoms: _65  and  _66
REMARK   16  A    between atoms: _69  and  _71
REMARK   17  A    between atoms: _71  and  _72
REMARK   18  A    between atoms: _71  and  _74
REMARK   19  A    between atoms: _74  and  _75
REMARK   20  A    between atoms: _80  and  _81
REMARK   21  A    between atoms: _83  and  _85
REMARK   22  A    between atoms: _85  and  _86
REMARK   23  A    between atoms: _85  and  _88
REMARK   24  A    between atoms: _88  and  _89
REMARK   25  A    between atoms: _89  and  _90
REMARK   26  A    between atoms: _93  and  _95
REMARK   27  A    between atoms: _95  and  _96
REMARK   28  A    between atoms: _95  and  _98
REMARK   29  A    between atoms: _98  and  _99
REMARK   30  A    between atoms: _99  and  _100
REMARK   31  A    between atoms: _102  and  _104
REMARK   32  A    between atoms: _104  and  _105
REMARK   33  A    between atoms: _104  and  _107
REMARK   34  A    between atoms: _107  and  _108
REMARK   35  A    between atoms: _111  and  _113
REMARK   36  A    between atoms: _113  and  _114
REMARK   37  A    between atoms: _113  and  _116
REMARK   38  A    between atoms: _116  and  _117
REMARK   39  A    between atoms: _117  and  _119
REMARK   40  A    between atoms: _119  and  ZN_358
REMARK   41  A    between atoms: _121  and  _122
REMARK   42  A    between atoms: _127  and  _129
REMARK   43  A    between atoms: _129  and  _130
REMARK   44  A    between atoms: _129  and  _132
REMARK   45  A    between atoms: _132  and  _133
REMARK   46  A    between atoms: _139  and  _141
REMARK   47  A    between atoms: _141  and  _142
REMARK   48  A    between atoms: _141  and  _144
REMARK   49  A    between atoms: _144  and  _145
REMARK   50  A    between atoms: _145  and  _146
REMARK   51  A    between atoms: _146  and  _147
REMARK   52  A    between atoms: _156  and  _158
REMARK   53  A    between atoms: _158  and  _159
REMARK   54  A    between atoms: _158  and  _161
REMARK   55  A    between atoms: _161  and  _162
REMARK   56  A    between atoms: _164  and  _166
REMARK   57  A    between atoms: _166  and  _167
REMARK   58  A    between atoms: _166  and  _169
REMARK   59  A    between atoms: _169  and  _170
REMARK   60  A    between atoms: _175  and  _176
REMARK   61  A    between atoms: _178  and  _180
REMARK   62  A    between atoms: _180  and  _181
REMARK   63  A    between atoms: _180  and  _183
REMARK   64  A    between atoms: _183  and  _184
REMARK   65  A    between atoms: _187  and  _189
REMARK   66  A    between atoms: _189  and  _190
REMARK   67  A    between atoms: _189  and  _192
REMARK   68  A    between atoms: _192  and  _193
REMARK   69  A    between atoms: _196  and  _198
REMARK   70  A    between atoms: _198  and  _199
REMARK   71  A    between atoms: _198  and  _201
REMARK   72  A    between atoms: _201  and  _202
REMARK   73  A    between atoms: _205  and  _207
REMARK   74  A    between atoms: _207  and  _208
REMARK   75  A    between atoms: _207  and  _210
REMARK   76  A    between atoms: _210  and  _211
REMARK   77  A    between atoms: _217  and  _219
REMARK   78  A    between atoms: _219  and  _220
REMARK   79  A    between atoms: _219  and  _222
REMARK   80  A    between atoms: _222  and  _223
REMARK   81  A    between atoms: _228  and  _229
REMARK   82  A    between atoms: _231  and  _233
REMARK   83  A    between atoms: _233  and  _234
REMARK   84  A    between atoms: _233  and  _236
REMARK   85  A    between atoms: _236  and  _237
REMARK   86  A    between atoms: _247  and  _249
REMARK   87  A    between atoms: _249  and  _250
REMARK   88  A    between atoms: _249  and  _252
REMARK   89  A    between atoms: _252  and  _253
REMARK   90  A    between atoms: _258  and  _260
REMARK   91  A    between atoms: _260  and  _261
REMARK   92  A    between atoms: _260  and  _263
REMARK   93  A    between atoms: _263  and  _264
REMARK   94  A    between atoms: _268  and  ZN_358
REMARK   95  A    between atoms: _269  and  _271
REMARK   96  A    between atoms: _271  and  _272
REMARK   97  A    between atoms: _271  and  _274
REMARK   98  A    between atoms: _274  and  _275
REMARK   99  A    between atoms: _278  and  _280
REMARK  100  A    between atoms: _280  and  _281
REMARK  101  A    between atoms: _283  and  _285
REMARK  102  A    between atoms: _285  and  _286
REMARK  103  A    between atoms: _285  and  _288
REMARK  104  A    between atoms: _288  and  _289
REMARK  105  A    between atoms: _292  and  _294
REMARK  106  A    between atoms: _294  and  _295
REMARK  107  A    between atoms: _294  and  _297
REMARK  108  A    between atoms: _297  and  _298
REMARK  109  A    between atoms: _301  and  _303
REMARK  110  A    between atoms: _303  and  _304
REMARK  111  A    between atoms: _307  and  _309
REMARK  112  A    between atoms: _309  and  _310
REMARK  113  A    between atoms: _313  and  _315
REMARK  114  A    between atoms: _315  and  _316
REMARK  115  A    between atoms: _315  and  _318
REMARK  116  A    between atoms: _318  and  _319
REMARK  117  A    between atoms: _324  and  _325
REMARK  118  A    between atoms: _327  and  _329
REMARK  119  A    between atoms: _329  and  _330
REMARK  120  A    between atoms: _329  and  _332
REMARK  121  A    between atoms: _332  and  _333
REMARK  122  A    between atoms: _333  and  _334
REMARK  123  A    between atoms: _334  and  _335
REMARK  124  A    between atoms: _344  and  _346
REMARK  125  A    between atoms: _346  and  _347
REMARK  126  A    between atoms: _349  and  _351
REMARK  127  A    between atoms: _351  and  _352
REMARK  128  A    between atoms: _351  and  _354
REMARK  129  A    between atoms: _354  and  _355
REMARK                            x       y       z     vdW  Elec       q    Type
REMARK                         _______ _______ _______ _____ _____    ______ ____
ROOT
ATOM      1  O   HOH     1      29.351  65.798  15.759  0.00  0.00    +0.000 OA
ENDROOT
TORSDOF 0
REMARK  Name = ../refined-set-2016/3dx1/3dx1_pocket.pdb
REMARK  129 active torsions:
REMARK  status: ('A' for Active; 'I' for Inactive)
REMARK    1  A    between atoms: _1  and  _3
REMARK    2  A    between atoms: _14  and  _17
REMARK    3  A    between atoms: _17  and  _18
REMARK    4  A    between atoms: _25  and  _26
REMARK    5  A    between atoms: _33  and  _34
REMARK    6  A    between atoms: _39  and  _41
REMARK    7  A    between atoms: _41  and  _42
REMARK    8  A    between atoms: _44  and  _46
REMARK    9  A    between atoms: _46  and  _47
REMARK   10  A    between atoms: _46  and  _49
REMARK   11  A    between atoms: _49  and  _50
REMARK   12  A    between atoms: _60  and  _62
REMARK   13  A    between atoms: _62  and  _63
REMARK   14  A    between atoms: _62  and  _65
REMARK   15  A    between atoms: _65  and  _66
REMARK   16  A    between atoms: _69  and  _71
REMARK   17  A    between atoms: _71  and  _72
REMARK   18  A    between atoms: _71  and  _74
REMARK   19  A    between atoms: _74  and  _75
REMARK   20  A    between atoms: _80  and  _81
REMARK   21  A    between atoms: _83  and  _85
REMARK   22  A    between atoms: _85  and  _86
REMARK   23  A    between atoms: _85  and  _88
REMARK   24  A    between atoms: _88  and  _89
REMARK   25  A    between atoms: _89  and  _90
REMARK   26  A    between atoms: _93  and  _95
REMARK   27  A    between atoms: _95  and  _96
REMARK   28  A    between atoms: _95  and  _98
REMARK   29  A    between atoms: _98  and  _99
REMARK   30  A    between atoms: _99  and  _100
REMARK   31  A    between atoms: _102  and  _104
REMARK   32  A    between atoms: _104  and  _105
REMARK   33  A    between atoms: _104  and  _107
REMARK   34  A    between atoms: _107  and  _108
REMARK   35  A    between atoms: _111  and  _113
REMARK   36  A    between atoms: _113  and  _114
REMARK   37  A    between atoms: _113  and  _116
REMARK   38  A    between atoms: _116  and  _117
REMARK   39  A    between atoms: _117  and  _119
REMARK   40  A    between atoms: _119  and  ZN_358
REMARK   41  A    between atoms: _121  and  _122
REMARK   42  A    between atoms: _127  and  _129
REMARK   43  A    between atoms: _129  and  _130
REMARK   44  A    between atoms: _129  and  _132
REMARK   45  A    between atoms: _132  and  _133
REMARK   46  A    between atoms: _139  and  _141
REMARK   47  A    between atoms: _141  and  _142
REMARK   48  A    between atoms: _141  and  _144
REMARK   49  A    between atoms: _144  and  _145
REMARK   50  A    between atoms: _145  and  _146
REMARK   51  A    between atoms: _146  and  _147
REMARK   52  A    between atoms: _156  and  _158
REMARK   53  A    between atoms: _158  and  _159
REMARK   54  A    between atoms: _158  and  _161
REMARK   55  A    between atoms: _161  and  _162
REMARK   56  A    between atoms: _164  and  _166
REMARK   57  A    between atoms: _166  and  _167
REMARK   58  A    between atoms: _166  and  _169
REMARK   59  A    between atoms: _169  and  _170
REMARK   60  A    between atoms: _175  and  _176
REMARK   61  A    between atoms: _178  and  _180
REMARK   62  A    between atoms: _180  and  _181
REMARK   63  A    between atoms: _180  and  _183
REMARK   64  A    between atoms: _183  and  _184
REMARK   65  A    between atoms: _187  and  _189
REMARK   66  A    between atoms: _189  and  _190
REMARK   67  A    between atoms: _189  and  _192
REMARK   68  A    between atoms: _192  and  _193
REMARK   69  A    between atoms: _196  and  _198
REMARK   70  A    between atoms: _198  and  _199
REMARK   71  A    between atoms: _198  and  _201
REMARK   72  A    between atoms: _201  and  _202
REMARK   73  A    between atoms: _205  and  _207
REMARK   74  A    between atoms: _207  and  _208
REMARK   75  A    between atoms: _207  and  _210
REMARK   76  A    between atoms: _210  and  _211
REMARK   77  A    between atoms: _217  and  _219
REMARK   78  A    between atoms: _219  and  _220
REMARK   79  A    between atoms: _219  and  _222
REMARK   80  A    between atoms: _222  and  _223
REMARK   81  A    between atoms: _228  and  _229
REMARK   82  A    between atoms: _231  and  _233
REMARK   83  A    between atoms: _233  and  _234
REMARK   84  A    between atoms: _233  and  _236
REMARK   85  A    between atoms: _236  and  _237
REMARK   86  A    between atoms: _247  and  _249
REMARK   87  A    between atoms: _249  and  _250
REMARK   88  A    between atoms: _249  and  _252
REMARK   89  A    between atoms: _252  and  _253
REMARK   90  A    between atoms: _258  and  _260
REMARK   91  A    between atoms: _260  and  _261
REMARK   92  A    between atoms: _260  and  _263
REMARK   93  A    between atoms: _263  and  _264
REMARK   94  A    between atoms: _268  and  ZN_358
REMARK   95  A    between atoms: _269  and  _271
REMARK   96  A    between atoms: _271  and  _272
REMARK   97  A    between atoms: _271  and  _274
REMARK   98  A    between atoms: _274  and  _275
REMARK   99  A    between atoms: _278  and  _280
REMARK  100  A    between atoms: _280  and  _281
REMARK  101  A    between atoms: _283  and  _285
REMARK  102  A    between atoms: _285  and  _286
REMARK  103  A    between atoms: _285  and  _288
REMARK  104  A    between atoms: _288  and  _289
REMARK  105  A    between atoms: _292  and  _294
REMARK  106  A    between atoms: _294  and  _295
REMARK  107  A    between atoms: _294  and  _297
REMARK  108  A    between atoms: _297  and  _298
REMARK  109  A    between atoms: _301  and  _303
REMARK  110  A    between atoms: _303  and  _304
REMARK  111  A    between atoms: _307  and  _309
REMARK  112  A    between atoms: _309  and  _310
REMARK  113  A    between atoms: _313  and  _315
REMARK  114  A    between atoms: _315  and  _316
REMARK  115  A    between atoms: _315  and  _318
REMARK  116  A    between atoms: _318  and  _319
REMARK  117  A    between atoms: _324  and  _325
REMARK  118  A    between atoms: _327  and  _329
REMARK  119  A    between atoms: _329  and  _330
REMARK  120  A    between atoms: _329  and  _332
REMARK  121  A    between atoms: _332  and  _333
REMARK  122  A    between atoms: _333  and  _334
REMARK  123  A    between atoms: _334  and  _335
REMARK  124  A    between atoms: _344  and  _346
REMARK  125  A    between atoms: _346  and  _347
REMARK  126  A    between atoms: _349  and  _351
REMARK  127  A    between atoms: _351  and  _352
REMARK  128  A    between atoms: _351  and  _354
REMARK  129  A    between atoms: _354  and  _355
REMARK                            x       y       z     vdW  Elec       q    Type
REMARK                         _______ _______ _______ _____ _____    ______ ____
ROOT
ATOM      1  O   HOH     1      28.696  63.371  13.561  0.00  0.00    +0.000 OA
ENDROOT
TORSDOF 0
REMARK  Name = ../refined-set-2016/3dx1/3dx1_pocket.pdb
REMARK  129 active torsions:
REMARK  status: ('A' for Active; 'I' for Inactive)
REMARK    1  A    between atoms: _1  and  _3
REMARK    2  A    between atoms: _14  and  _17
REMARK    3  A    between atoms: _17  and  _18
REMARK    4  A    between atoms: _25  and  _26
REMARK    5  A    between atoms: _33  and  _34
REMARK    6  A    between atoms: _39  and  _41
REMARK    7  A    between atoms: _41  and  _42
REMARK    8  A    between atoms: _44  and  _46
REMARK    9  A    between atoms: _46  and  _47
REMARK   10  A    between atoms: _46  and  _49
REMARK   11  A    between atoms: _49  and  _50
REMARK   12  A    between atoms: _60  and  _62
REMARK   13  A    between atoms: _62  and  _63
REMARK   14  A    between atoms: _62  and  _65
REMARK   15  A    between atoms: _65  and  _66
REMARK   16  A    between atoms: _69  and  _71
REMARK   17  A    between atoms: _71  and  _72
REMARK   18  A    between atoms: _71  and  _74
REMARK   19  A    between atoms: _74  and  _75
REMARK   20  A    between atoms: _80  and  _81
REMARK   21  A    between atoms: _83  and  _85
REMARK   22  A    between atoms: _85  and  _86
REMARK   23  A    between atoms: _85  and  _88
REMARK   24  A    between atoms: _88  and  _89
REMARK   25  A    between atoms: _89  and  _90
REMARK   26  A    between atoms: _93  and  _95
REMARK   27  A    between atoms: _95  and  _96
REMARK   28  A    between atoms: _95  and  _98
REMARK   29  A    between atoms: _98  and  _99
REMARK   30  A    between atoms: _99  and  _100
REMARK   31  A    between atoms: _102  and  _104
REMARK   32  A    between atoms: _104  and  _105
REMARK   33  A    between atoms: _104  and  _107
REMARK   34  A    between atoms: _107  and  _108
REMARK   35  A    between atoms: _111  and  _113
REMARK   36  A    between atoms: _113  and  _114
REMARK   37  A    between atoms: _113  and  _116
REMARK   38  A    between atoms: _116  and  _117
REMARK   39  A    between atoms: _117  and  _119
REMARK   40  A    between atoms: _119  and  ZN_358
REMARK   41  A    between atoms: _121  and  _122
REMARK   42  A    between atoms: _127  and  _129
REMARK   43  A    between atoms: _129  and  _130
REMARK   44  A    between atoms: _129  and  _132
REMARK   45  A    between atoms: _132  and  _133
REMARK   46  A    between atoms: _139  and  _141
REMARK   47  A    between atoms: _141  and  _142
REMARK   48  A    between atoms: _141  and  _144
REMARK   49  A    between atoms: _144  and  _145
REMARK   50  A    between atoms: _145  and  _146
REMARK   51  A    between atoms: _146  and  _147
REMARK   52  A    between atoms: _156  and  _158
REMARK   53  A    between atoms: _158  and  _159
REMARK   54  A    between atoms: _158  and  _161
REMARK   55  A    between atoms: _161  and  _162
REMARK   56  A    between atoms: _164  and  _166
REMARK   57  A    between atoms: _166  and  _167
REMARK   58  A    between atoms: _166  and  _169
REMARK   59  A    between atoms: _169  and  _170
REMARK   60  A    between atoms: _175  and  _176
REMARK   61  A    between atoms: _178  and  _180
REMARK   62  A    between atoms: _180  and  _181
REMARK   63  A    between atoms: _180  and  _183
REMARK   64  A    between atoms: _183  and  _184
REMARK   65  A    between atoms: _187  and  _189
REMARK   66  A    between atoms: _189  and  _190
REMARK   67  A    between atoms: _189  and  _192
REMARK   68  A    between atoms: _192  and  _193
REMARK   69  A    between atoms: _196  and  _198
REMARK   70  A    between atoms: _198  and  _199
REMARK   71  A    between atoms: _198  and  _201
REMARK   72  A    between atoms: _201  and  _202
REMARK   73  A    between atoms: _205  and  _207
REMARK   74  A    between atoms: _207  and  _208
REMARK   75  A    between atoms: _207  and  _210
REMARK   76  A    between atoms: _210  and  _211
REMARK   77  A    between atoms: _217  and  _219
REMARK   78  A    between atoms: _219  and  _220
REMARK   79  A    between atoms: _219  and  _222
REMARK   80  A    between atoms: _222  and  _223
REMARK   81  A    between atoms: _228  and  _229
REMARK   82  A    between atoms: _231  and  _233
REMARK   83  A    between atoms: _233  and  _234
REMARK   84  A    between atoms: _233  and  _236
REMARK   85  A    between atoms: _236  and  _237
REMARK   86  A    between atoms: _247  and  _249
REMARK   87  A    between atoms: _249  and  _250
REMARK   88  A    between atoms: _249  and  _252
REMARK   89  A    between atoms: _252  and  _253
REMARK   90  A    between atoms: _258  and  _260
REMARK   91  A    between atoms: _260  and  _261
REMARK   92  A    between atoms: _260  and  _263
REMARK   93  A    between atoms: _263  and  _264
REMARK   94  A    between atoms: _268  and  ZN_358
REMARK   95  A    between atoms: _269  and  _271
REMARK   96  A    between atoms: _271  and  _272
REMARK   97  A    between atoms: _271  and  _274
REMARK   98  A    between atoms: _274  and  _275
REMARK   99  A    between atoms: _278  and  _280
REMARK  100  A    between atoms: _280  and  _281
REMARK  101  A    between atoms: _283  and  _285
REMARK  102  A    between atoms: _285  and  _286
REMARK  103  A    between atoms: _285  and  _288
REMARK  104  A    between atoms: _288  and  _289
REMARK  105  A    between atoms: _292  and  _294
REMARK  106  A    between atoms: _294  and  _295
REMARK  107  A    between atoms: _294  and  _297
REMARK  108  A    between atoms: _297  and  _298
REMARK  109  A    between atoms: _301  and  _303
REMARK  110  A    between atoms: _303  and  _304
REMARK  111  A    between atoms: _307  and  _309
REMARK  112  A    between atoms: _309  and  _310
REMARK  113  A    between atoms: _313  and  _315
REMARK  114  A    between atoms: _315  and  _316
REMARK  115  A    between atoms: _315  and  _318
REMARK  116  A    between atoms: _318  and  _319
REMARK  117  A    between atoms: _324  and  _325
REMARK  118  A    between atoms: _327  and  _329
REMARK  119  A    between atoms: _329  and  _330
REMARK  120  A    between atoms: _329  and  _332
REMARK  121  A    between atoms: _332  and  _333
REMARK  122  A    between atoms: _333  and  _334
REMARK  123  A    between atoms: _334  and  _335
REMARK  124  A    between atoms: _344  and  _346
REMARK  125  A    between atoms: _346  and  _347
REMARK  126  A    between atoms: _349  and  _351
REMARK  127  A    between atoms: _351  and  _352
REMARK  128  A    between atoms: _351  and  _354
REMARK  129  A    between atoms: _354  and  _355
REMARK                            x       y       z     vdW  Elec       q    Type
REMARK                         _______ _______ _______ _____ _____    ______ ____
ROOT
ATOM      1  O   HOH     1      25.923  63.151  13.627  0.00  0.00    +0.000 OA
ENDROOT
TORSDOF 0
REMARK  Name = ../refined-set-2016/3dx1/3dx1_pocket.pdb
REMARK  129 active torsions:
REMARK  status: ('A' for Active; 'I' for Inactive)
REMARK    1  A    between atoms: _1  and  _3
REMARK    2  A    between atoms: _14  and  _17
REMARK    3  A    between atoms: _17  and  _18
REMARK    4  A    between atoms: _25  and  _26
REMARK    5  A    between atoms: _33  and  _34
REMARK    6  A    between atoms: _39  and  _41
REMARK    7  A    between atoms: _41  and  _42
REMARK    8  A    between atoms: _44  and  _46
REMARK    9  A    between atoms: _46  and  _47
REMARK   10  A    between atoms: _46  and  _49
REMARK   11  A    between atoms: _49  and  _50
REMARK   12  A    between atoms: _60  and  _62
REMARK   13  A    between atoms: _62  and  _63
REMARK   14  A    between atoms: _62  and  _65
REMARK   15  A    between atoms: _65  and  _66
REMARK   16  A    between atoms: _69  and  _71
REMARK   17  A    between atoms: _71  and  _72
REMARK   18  A    between atoms: _71  and  _74
REMARK   19  A    between atoms: _74  and  _75
REMARK   20  A    between atoms: _80  and  _81
REMARK   21  A    between atoms: _83  and  _85
REMARK   22  A    between atoms: _85  and  _86
REMARK   23  A    between atoms: _85  and  _88
REMARK   24  A    between atoms: _88  and  _89
REMARK   25  A    between atoms: _89  and  _90
REMARK   26  A    between atoms: _93  and  _95
REMARK   27  A    between atoms: _95  and  _96
REMARK   28  A    between atoms: _95  and  _98
REMARK   29  A    between atoms: _98  and  _99
REMARK   30  A    between atoms: _99  and  _100
REMARK   31  A    between atoms: _102  and  _104
REMARK   32  A    between atoms: _104  and  _105
REMARK   33  A    between atoms: _104  and  _107
REMARK   34  A    between atoms: _107  and  _108
REMARK   35  A    between atoms: _111  and  _113
REMARK   36  A    between atoms: _113  and  _114
REMARK   37  A    between atoms: _113  and  _116
REMARK   38  A    between atoms: _116  and  _117
REMARK   39  A    between atoms: _117  and  _119
REMARK   40  A    between atoms: _119  and  ZN_358
REMARK   41  A    between atoms: _121  and  _122
REMARK   42  A    between atoms: _127  and  _129
REMARK   43  A    between atoms: _129  and  _130
REMARK   44  A    between atoms: _129  and  _132
REMARK   45  A    between atoms: _132  and  _133
REMARK   46  A    between atoms: _139  and  _141
REMARK   47  A    between atoms: _141  and  _142
REMARK   48  A    between atoms: _141  and  _144
REMARK   49  A    between atoms: _144  and  _145
REMARK   50  A    between atoms: _145  and  _146
REMARK   51  A    between atoms: _146  and  _147
REMARK   52  A    between atoms: _156  and  _158
REMARK   53  A    between atoms: _158  and  _159
REMARK   54  A    between atoms: _158  and  _161
REMARK   55  A    between atoms: _161  and  _162
REMARK   56  A    between atoms: _164  and  _166
REMARK   57  A    between atoms: _166  and  _167
REMARK   58  A    between atoms: _166  and  _169
REMARK   59  A    between atoms: _169  and  _170
REMARK   60  A    between atoms: _175  and  _176
REMARK   61  A    between atoms: _178  and  _180
REMARK   62  A    between atoms: _180  and  _181
REMARK   63  A    between atoms: _180  and  _183
REMARK   64  A    between atoms: _183  and  _184
REMARK   65  A    between atoms: _187  and  _189
REMARK   66  A    between atoms: _189  and  _190
REMARK   67  A    between atoms: _189  and  _192
REMARK   68  A    between atoms: _192  and  _193
REMARK   69  A    between atoms: _196  and  _198
REMARK   70  A    between atoms: _198  and  _199
REMARK   71  A    between atoms: _198  and  _201
REMARK   72  A    between atoms: _201  and  _202
REMARK   73  A    between atoms: _205  and  _207
REMARK   74  A    between atoms: _207  and  _208
REMARK   75  A    between atoms: _207  and  _210
REMARK   76  A    between atoms: _210  and  _211
REMARK   77  A    between atoms: _217  and  _219
REMARK   78  A    between atoms: _219  and  _220
REMARK   79  A    between atoms: _219  and  _222
REMARK   80  A    between atoms: _222  and  _223
REMARK   81  A    between atoms: _228  and  _229
REMARK   82  A    between atoms: _231  and  _233
REMARK   83  A    between atoms: _233  and  _234
REMARK   84  A    between atoms: _233  and  _236
REMARK   85  A    between atoms: _236  and  _237
REMARK   86  A    between atoms: _247  and  _249
REMARK   87  A    between atoms: _249  and  _250
REMARK   88  A    between atoms: _249  and  _252
REMARK   89  A    between atoms: _252  and  _253
REMARK   90  A    between atoms: _258  and  _260
REMARK   91  A    between atoms: _260  and  _261
REMARK   92  A    between atoms: _260  and  _263
REMARK   93  A    between atoms: _263  and  _264
REMARK   94  A    between atoms: _268  and  ZN_358
REMARK   95  A    between atoms: _269  and  _271
REMARK   96  A    between atoms: _271  and  _272
REMARK   97  A    between atoms: _271  and  _274
REMARK   98  A    between atoms: _274  and  _275
REMARK   99  A    between atoms: _278  and  _280
REMARK  100  A    between atoms: _280  and  _281
REMARK  101  A    between atoms: _283  and  _285
REMARK  102  A    between atoms: _285  and  _286
REMARK  103  A    between atoms: _285  and  _288
REMARK  104  A    between atoms: _288  and  _289
REMARK  105  A    between atoms: _292  and  _294
REMARK  106  A    between atoms: _294  and  _295
REMARK  107  A    between atoms: _294  and  _297
REMARK  108  A    between atoms: _297  and  _298
REMARK  109  A    between atoms: _301  and  _303
REMARK  110  A    between atoms: _303  and  _304
REMARK  111  A    between atoms: _307  and  _309
REMARK  112  A    between atoms: _309  and  _310
REMARK  113  A    between atoms: _313  and  _315
REMARK  114  A    between atoms: _315  and  _316
REMARK  115  A    between atoms: _315  and  _318
REMARK  116  A    between atoms: _318  and  _319
REMARK  117  A    between atoms: _324  and  _325
REMARK  118  A    between atoms: _327  and  _329
REMARK  119  A    between atoms: _329  and  _330
REMARK  120  A    between atoms: _329  and  _332
REMARK  121  A    between atoms: _332  and  _333
REMARK  122  A    between atoms: _333  and  _334
REMARK  123  A    between atoms: _334  and  _335
REMARK  124  A    between atoms: _344  and  _346
REMARK  125  A    between atoms: _346  and  _347
REMARK  126  A    between atoms: _349  and  _351
REMARK  127  A    between atoms: _351  and  _352
REMARK  128  A    between atoms: _351  and  _354
REMARK  129  A    between atoms: _354  and  _355
REMARK                            x       y       z     vdW  Elec       q    Type
REMARK                         _______ _______ _______ _____ _____    ______ ____
ROOT
ATOM      1  O   HOH     1      33.081  62.611   0.128  0.00  0.00    +0.000 OA
ENDROOT
TORSDOF 0
REMARK  Name = ../refined-set-2016/3dx1/3dx1_pocket.pdb
REMARK  129 active torsions:
REMARK  status: ('A' for Active; 'I' for Inactive)
REMARK    1  A    between atoms: _1  and  _3
REMARK    2  A    between atoms: _14  and  _17
REMARK    3  A    between atoms: _17  and  _18
REMARK    4  A    between atoms: _25  and  _26
REMARK    5  A    between atoms: _33  and  _34
REMARK    6  A    between atoms: _39  and  _41
REMARK    7  A    between atoms: _41  and  _42
REMARK    8  A    between atoms: _44  and  _46
REMARK    9  A    between atoms: _46  and  _47
REMARK   10  A    between atoms: _46  and  _49
REMARK   11  A    between atoms: _49  and  _50
REMARK   12  A    between atoms: _60  and  _62
REMARK   13  A    between atoms: _62  and  _63
REMARK   14  A    between atoms: _62  and  _65
REMARK   15  A    between atoms: _65  and  _66
REMARK   16  A    between atoms: _69  and  _71
REMARK   17  A    between atoms: _71  and  _72
REMARK   18  A    between atoms: _71  and  _74
REMARK   19  A    between atoms: _74  and  _75
REMARK   20  A    between atoms: _80  and  _81
REMARK   21  A    between atoms: _83  and  _85
REMARK   22  A    between atoms: _85  and  _86
REMARK   23  A    between atoms: _85  and  _88
REMARK   24  A    between atoms: _88  and  _89
REMARK   25  A    between atoms: _89  and  _90
REMARK   26  A    between atoms: _93  and  _95
REMARK   27  A    between atoms: _95  and  _96
REMARK   28  A    between atoms: _95  and  _98
REMARK   29  A    between atoms: _98  and  _99
REMARK   30  A    between atoms: _99  and  _100
REMARK   31  A    between atoms: _102  and  _104
REMARK   32  A    between atoms: _104  and  _105
REMARK   33  A    between atoms: _104  and  _107
REMARK   34  A    between atoms: _107  and  _108
REMARK   35  A    between atoms: _111  and  _113
REMARK   36  A    between atoms: _113  and  _114
REMARK   37  A    between atoms: _113  and  _116
REMARK   38  A    between atoms: _116  and  _117
REMARK   39  A    between atoms: _117  and  _119
REMARK   40  A    between atoms: _119  and  ZN_358
REMARK   41  A    between atoms: _121  and  _122
REMARK   42  A    between atoms: _127  and  _129
REMARK   43  A    between atoms: _129  and  _130
REMARK   44  A    between atoms: _129  and  _132
REMARK   45  A    between atoms: _132  and  _133
REMARK   46  A    between atoms: _139  and  _141
REMARK   47  A    between atoms: _141  and  _142
REMARK   48  A    between atoms: _141  and  _144
REMARK   49  A    between atoms: _144  and  _145
REMARK   50  A    between atoms: _145  and  _146
REMARK   51  A    between atoms: _146  and  _147
REMARK   52  A    between atoms: _156  and  _158
REMARK   53  A    between atoms: _158  and  _159
REMARK   54  A    between atoms: _158  and  _161
REMARK   55  A    between atoms: _161  and  _162
REMARK   56  A    between atoms: _164  and  _166
REMARK   57  A    between atoms: _166  and  _167
REMARK   58  A    between atoms: _166  and  _169
REMARK   59  A    between atoms: _169  and  _170
REMARK   60  A    between atoms: _175  and  _176
REMARK   61  A    between atoms: _178  and  _180
REMARK   62  A    between atoms: _180  and  _181
REMARK   63  A    between atoms: _180  and  _183
REMARK   64  A    between atoms: _183  and  _184
REMARK   65  A    between atoms: _187  and  _189
REMARK   66  A    between atoms: _189  and  _190
REMARK   67  A    between atoms: _189  and  _192
REMARK   68  A    between atoms: _192  and  _193
REMARK   69  A    between atoms: _196  and  _198
REMARK   70  A    between atoms: _198  and  _199
REMARK   71  A    between atoms: _198  and  _201
REMARK   72  A    between atoms: _201  and  _202
REMARK   73  A    between atoms: _205  and  _207
REMARK   74  A    between atoms: _207  and  _208
REMARK   75  A    between atoms: _207  and  _210
REMARK   76  A    between atoms: _210  and  _211
REMARK   77  A    between atoms: _217  and  _219
REMARK   78  A    between atoms: _219  and  _220
REMARK   79  A    between atoms: _219  and  _222
REMARK   80  A    between atoms: _222  and  _223
REMARK   81  A    between atoms: _228  and  _229
REMARK   82  A    between atoms: _231  and  _233
REMARK   83  A    between atoms: _233  and  _234
REMARK   84  A    between atoms: _233  and  _236
REMARK   85  A    between atoms: _236  and  _237
REMARK   86  A    between atoms: _247  and  _249
REMARK   87  A    between atoms: _249  and  _250
REMARK   88  A    between atoms: _249  and  _252
REMARK   89  A    between atoms: _252  and  _253
REMARK   90  A    between atoms: _258  and  _260
REMARK   91  A    between atoms: _260  and  _261
REMARK   92  A    between atoms: _260  and  _263
REMARK   93  A    between atoms: _263  and  _264
REMARK   94  A    between atoms: _268  and  ZN_358
REMARK   95  A    between atoms: _269  and  _271
REMARK   96  A    between atoms: _271  and  _272
REMARK   97  A    between atoms: _271  and  _274
REMARK   98  A    between atoms: _274  and  _275
REMARK   99  A    between atoms: _278  and  _280
REMARK  100  A    between atoms: _280  and  _281
REMARK  101  A    between atoms: _283  and  _285
REMARK  102  A    between atoms: _285  and  _286
REMARK  103  A    between atoms: _285  and  _288
REMARK  104  A    between atoms: _288  and  _289
REMARK  105  A    between atoms: _292  and  _294
REMARK  106  A    between atoms: _294  and  _295
REMARK  107  A    between atoms: _294  and  _297
REMARK  108  A    between atoms: _297  and  _298
REMARK  109  A    between atoms: _301  and  _303
REMARK  110  A    between atoms: _303  and  _304
REMARK  111  A    between atoms: _307  and  _309
REMARK  112  A    between atoms: _309  and  _310
REMARK  113  A    between atoms: _313  and  _315
REMARK  114  A    between atoms: _315  and  _316
REMARK  115  A    between atoms: _315  and  _318
REMARK  116  A    between atoms: _318  and  _319
REMARK  117  A    between atoms: _324  and  _325
REMARK  118  A    between atoms: _327  and  _329
REMARK  119  A    between atoms: _329  and  _330
REMARK  120  A    between atoms: _329  and  _332
REMARK  121  A    between atoms: _332  and  _333
REMARK  122  A    between atoms: _333  and  _334
REMARK  123  A    between atoms: _334  and  _335
REMARK  124  A    between atoms: _344  and  _346
REMARK  125  A    between atoms: _346  and  _347
REMARK  126  A    between atoms: _349  and  _351
REMARK  127  A    between atoms: _351  and  _352
REMARK  128  A    between atoms: _351  and  _354
REMARK  129  A    between atoms: _354  and  _355
REMARK                            x       y       z     vdW  Elec       q    Type
REMARK                         _______ _______ _______ _____ _____    ______ ____
ROOT
ATOM      1  O   HOH     1      37.739  58.910  11.147  0.00  0.00    +0.000 OA
ENDROOT
TORSDOF 0
REMARK  Name = ../refined-set-2016/3dx1/3dx1_pocket.pdb
REMARK  129 active torsions:
REMARK  status: ('A' for Active; 'I' for Inactive)
REMARK    1  A    between atoms: _1  and  _3
REMARK    2  A    between atoms: _14  and  _17
REMARK    3  A    between atoms: _17  and  _18
REMARK    4  A    between atoms: _25  and  _26
REMARK    5  A    between atoms: _33  and  _34
REMARK    6  A    between atoms: _39  and  _41
REMARK    7  A    between atoms: _41  and  _42
REMARK    8  A    between atoms: _44  and  _46
REMARK    9  A    between atoms: _46  and  _47
REMARK   10  A    between atoms: _46  and  _49
REMARK   11  A    between atoms: _49  and  _50
REMARK   12  A    between atoms: _60  and  _62
REMARK   13  A    between atoms: _62  and  _63
REMARK   14  A    between atoms: _62  and  _65
REMARK   15  A    between atoms: _65  and  _66
REMARK   16  A    between atoms: _69  and  _71
REMARK   17  A    between atoms: _71  and  _72
REMARK   18  A    between atoms: _71  and  _74
REMARK   19  A    between atoms: _74  and  _75
REMARK   20  A    between atoms: _80  and  _81
REMARK   21  A    between atoms: _83  and  _85
REMARK   22  A    between atoms: _85  and  _86
REMARK   23  A    between atoms: _85  and  _88
REMARK   24  A    between atoms: _88  and  _89
REMARK   25  A    between atoms: _89  and  _90
REMARK   26  A    between atoms: _93  and  _95
REMARK   27  A    between atoms: _95  and  _96
REMARK   28  A    between atoms: _95  and  _98
REMARK   29  A    between atoms: _98  and  _99
REMARK   30  A    between atoms: _99  and  _100
REMARK   31  A    between atoms: _102  and  _104
REMARK   32  A    between atoms: _104  and  _105
REMARK   33  A    between atoms: _104  and  _107
REMARK   34  A    between atoms: _107  and  _108
REMARK   35  A    between atoms: _111  and  _113
REMARK   36  A    between atoms: _113  and  _114
REMARK   37  A    between atoms: _113  and  _116
REMARK   38  A    between atoms: _116  and  _117
REMARK   39  A    between atoms: _117  and  _119
REMARK   40  A    between atoms: _119  and  ZN_358
REMARK   41  A    between atoms: _121  and  _122
REMARK   42  A    between atoms: _127  and  _129
REMARK   43  A    between atoms: _129  and  _130
REMARK   44  A    between atoms: _129  and  _132
REMARK   45  A    between atoms: _132  and  _133
REMARK   46  A    between atoms: _139  and  _141
REMARK   47  A    between atoms: _141  and  _142
REMARK   48  A    between atoms: _141  and  _144
REMARK   49  A    between atoms: _144  and  _145
REMARK   50  A    between atoms: _145  and  _146
REMARK   51  A    between atoms: _146  and  _147
REMARK   52  A    between atoms: _156  and  _158
REMARK   53  A    between atoms: _158  and  _159
REMARK   54  A    between atoms: _158  and  _161
REMARK   55  A    between atoms: _161  and  _162
REMARK   56  A    between atoms: _164  and  _166
REMARK   57  A    between atoms: _166  and  _167
REMARK   58  A    between atoms: _166  and  _169
REMARK   59  A    between atoms: _169  and  _170
REMARK   60  A    between atoms: _175  and  _176
REMARK   61  A    between atoms: _178  and  _180
REMARK   62  A    between atoms: _180  and  _181
REMARK   63  A    between atoms: _180  and  _183
REMARK   64  A    between atoms: _183  and  _184
REMARK   65  A    between atoms: _187  and  _189
REMARK   66  A    between atoms: _189  and  _190
REMARK   67  A    between atoms: _189  and  _192
REMARK   68  A    between atoms: _192  and  _193
REMARK   69  A    between atoms: _196  and  _198
REMARK   70  A    between atoms: _198  and  _199
REMARK   71  A    between atoms: _198  and  _201
REMARK   72  A    between atoms: _201  and  _202
REMARK   73  A    between atoms: _205  and  _207
REMARK   74  A    between atoms: _207  and  _208
REMARK   75  A    between atoms: _207  and  _210
REMARK   76  A    between atoms: _210  and  _211
REMARK   77  A    between atoms: _217  and  _219
REMARK   78  A    between atoms: _219  and  _220
REMARK   79  A    between atoms: _219  and  _222
REMARK   80  A    between atoms: _222  and  _223
REMARK   81  A    between atoms: _228  and  _229
REMARK   82  A    between atoms: _231  and  _233
REMARK   83  A    between atoms: _233  and  _234
REMARK   84  A    between atoms: _233  and  _236
REMARK   85  A    between atoms: _236  and  _237
REMARK   86  A    between atoms: _247  and  _249
REMARK   87  A    between atoms: _249  and  _250
REMARK   88  A    between atoms: _249  and  _252
REMARK   89  A    between atoms: _252  and  _253
REMARK   90  A    between atoms: _258  and  _260
REMARK   91  A    between atoms: _260  and  _261
REMARK   92  A    between atoms: _260  and  _263
REMARK   93  A    between atoms: _263  and  _264
REMARK   94  A    between atoms: _268  and  ZN_358
REMARK   95  A    between atoms: _269  and  _271
REMARK   96  A    between atoms: _271  and  _272
REMARK   97  A    between atoms: _271  and  _274
REMARK   98  A    between atoms: _274  and  _275
REMARK   99  A    between atoms: _278  and  _280
REMARK  100  A    between atoms: _280  and  _281
REMARK  101  A    between atoms: _283  and  _285
REMARK  102  A    between atoms: _285  and  _286
REMARK  103  A    between atoms: _285  and  _288
REMARK  104  A    between atoms: _288  and  _289
REMARK  105  A    between atoms: _292  and  _294
REMARK  106  A    between atoms: _294  and  _295
REMARK  107  A    between atoms: _294  and  _297
REMARK  108  A    between atoms: _297  and  _298
REMARK  109  A    between atoms: _301  and  _303
REMARK  110  A    between atoms: _303  and  _304
REMARK  111  A    between atoms: _307  and  _309
REMARK  112  A    between atoms: _309  and  _310
REMARK  113  A    between atoms: _313  and  _315
REMARK  114  A    between atoms: _315  and  _316
REMARK  115  A    between atoms: _315  and  _318
REMARK  116  A    between atoms: _318  and  _319
REMARK  117  A    between atoms: _324  and  _325
REMARK  118  A    between atoms: _327  and  _329
REMARK  119  A    between atoms: _329  and  _330
REMARK  120  A    between atoms: _329  and  _332
REMARK  121  A    between atoms: _332  and  _333
REMARK  122  A    between atoms: _333  and  _334
REMARK  123  A    between atoms: _334  and  _335
REMARK  124  A    between atoms: _344  and  _346
REMARK  125  A    between atoms: _346  and  _347
REMARK  126  A    between atoms: _349  and  _351
REMARK  127  A    between atoms: _351  and  _352
REMARK  128  A    between atoms: _351  and  _354
REMARK  129  A    between atoms: _354  and  _355
REMARK                            x       y       z     vdW  Elec       q    Type
REMARK                         _______ _______ _______ _____ _____    ______ ____
ROOT
ATOM      1  O   HOH     1      38.740  62.203   8.478  0.00  0.00    +0.000 OA
ENDROOT
TORSDOF 0
REMARK  Name = ../refined-set-2016/3dx1/3dx1_pocket.pdb
REMARK  129 active torsions:
REMARK  status: ('A' for Active; 'I' for Inactive)
REMARK    1  A    between atoms: _1  and  _3
REMARK    2  A    between atoms: _14  and  _17
REMARK    3  A    between atoms: _17  and  _18
REMARK    4  A    between atoms: _25  and  _26
REMARK    5  A    between atoms: _33  and  _34
REMARK    6  A    between atoms: _39  and  _41
REMARK    7  A    between atoms: _41  and  _42
REMARK    8  A    between atoms: _44  and  _46
REMARK    9  A    between atoms: _46  and  _47
REMARK   10  A    between atoms: _46  and  _49
REMARK   11  A    between atoms: _49  and  _50
REMARK   12  A    between atoms: _60  and  _62
REMARK   13  A    between atoms: _62  and  _63
REMARK   14  A    between atoms: _62  and  _65
REMARK   15  A    between atoms: _65  and  _66
REMARK   16  A    between atoms: _69  and  _71
REMARK   17  A    between atoms: _71  and  _72
REMARK   18  A    between atoms: _71  and  _74
REMARK   19  A    between atoms: _74  and  _75
REMARK   20  A    between atoms: _80  and  _81
REMARK   21  A    between atoms: _83  and  _85
REMARK   22  A    between atoms: _85  and  _86
REMARK   23  A    between atoms: _85  and  _88
REMARK   24  A    between atoms: _88  and  _89
REMARK   25  A    between atoms: _89  and  _90
REMARK   26  A    between atoms: _93  and  _95
REMARK   27  A    between atoms: _95  and  _96
REMARK   28  A    between atoms: _95  and  _98
REMARK   29  A    between atoms: _98  and  _99
REMARK   30  A    between atoms: _99  and  _100
REMARK   31  A    between atoms: _102  and  _104
REMARK   32  A    between atoms: _104  and  _105
REMARK   33  A    between atoms: _104  and  _107
REMARK   34  A    between atoms: _107  and  _108
REMARK   35  A    between atoms: _111  and  _113
REMARK   36  A    between atoms: _113  and  _114
REMARK   37  A    between atoms: _113  and  _116
REMARK   38  A    between atoms: _116  and  _117
REMARK   39  A    between atoms: _117  and  _119
REMARK   40  A    between atoms: _119  and  ZN_358
REMARK   41  A    between atoms: _121  and  _122
REMARK   42  A    between atoms: _127  and  _129
REMARK   43  A    between atoms: _129  and  _130
REMARK   44  A    between atoms: _129  and  _132
REMARK   45  A    between atoms: _132  and  _133
REMARK   46  A    between atoms: _139  and  _141
REMARK   47  A    between atoms: _141  and  _142
REMARK   48  A    between atoms: _141  and  _144
REMARK   49  A    between atoms: _144  and  _145
REMARK   50  A    between atoms: _145  and  _146
REMARK   51  A    between atoms: _146  and  _147
REMARK   52  A    between atoms: _156  and  _158
REMARK   53  A    between atoms: _158  and  _159
REMARK   54  A    between atoms: _158  and  _161
REMARK   55  A    between atoms: _161  and  _162
REMARK   56  A    between atoms: _164  and  _166
REMARK   57  A    between atoms: _166  and  _167
REMARK   58  A    between atoms: _166  and  _169
REMARK   59  A    between atoms: _169  and  _170
REMARK   60  A    between atoms: _175  and  _176
REMARK   61  A    between atoms: _178  and  _180
REMARK   62  A    between atoms: _180  and  _181
REMARK   63  A    between atoms: _180  and  _183
REMARK   64  A    between atoms: _183  and  _184
REMARK   65  A    between atoms: _187  and  _189
REMARK   66  A    between atoms: _189  and  _190
REMARK   67  A    between atoms: _189  and  _192
REMARK   68  A    between atoms: _192  and  _193
REMARK   69  A    between atoms: _196  and  _198
REMARK   70  A    between atoms: _198  and  _199
REMARK   71  A    between atoms: _198  and  _201
REMARK   72  A    between atoms: _201  and  _202
REMARK   73  A    between atoms: _205  and  _207
REMARK   74  A    between atoms: _207  and  _208
REMARK   75  A    between atoms: _207  and  _210
REMARK   76  A    between atoms: _210  and  _211
REMARK   77  A    between atoms: _217  and  _219
REMARK   78  A    between atoms: _219  and  _220
REMARK   79  A    between atoms: _219  and  _222
REMARK   80  A    between atoms: _222  and  _223
REMARK   81  A    between atoms: _228  and  _229
REMARK   82  A    between atoms: _231  and  _233
REMARK   83  A    between atoms: _233  and  _234
REMARK   84  A    between atoms: _233  and  _236
REMARK   85  A    between atoms: _236  and  _237
REMARK   86  A    between atoms: _247  and  _249
REMARK   87  A    between atoms: _249  and  _250
REMARK   88  A    between atoms: _249  and  _252
REMARK   89  A    between atoms: _252  and  _253
REMARK   90  A    between atoms: _258  and  _260
REMARK   91  A    between atoms: _260  and  _261
REMARK   92  A    between atoms: _260  and  _263
REMARK   93  A    between atoms: _263  and  _264
REMARK   94  A    between atoms: _268  and  ZN_358
REMARK   95  A    between atoms: _269  and  _271
REMARK   96  A    between atoms: _271  and  _272
REMARK   97  A    between atoms: _271  and  _274
REMARK   98  A    between atoms: _274  and  _275
REMARK   99  A    between atoms: _278  and  _280
REMARK  100  A    between atoms: _280  and  _281
REMARK  101  A    between atoms: _283  and  _285
REMARK  102  A    between atoms: _285  and  _286
REMARK  103  A    between atoms: _285  and  _288
REMARK  104  A    between atoms: _288  and  _289
REMARK  105  A    between atoms: _292  and  _294
REMARK  106  A    between atoms: _294  and  _295
REMARK  107  A    between atoms: _294  and  _297
REMARK  108  A    between atoms: _297  and  _298
REMARK  109  A    between atoms: _301  and  _303
REMARK  110  A    between atoms: _303  and  _304
REMARK  111  A    between atoms: _307  and  _309
REMARK  112  A    between atoms: _309  and  _310
REMARK  113  A    between atoms: _313  and  _315
REMARK  114  A    between atoms: _315  and  _316
REMARK  115  A    between atoms: _315  and  _318
REMARK  116  A    between atoms: _318  and  _319
REMARK  117  A    between atoms: _324  and  _325
REMARK  118  A    between atoms: _327  and  _329
REMARK  119  A    between atoms: _329  and  _330
REMARK  120  A    between atoms: _329  and  _332
REMARK  121  A    between atoms: _332  and  _333
REMARK  122  A    between atoms: _333  and  _334
REMARK  123  A    between atoms: _334  and  _335
REMARK  124  A    between atoms: _344  and  _346
REMARK  125  A    between atoms: _346  and  _347
REMARK  126  A    between atoms: _349  and  _351
REMARK  127  A    between atoms: _351  and  _352
REMARK  128  A    between atoms: _351  and  _354
REMARK  129  A    between atoms: _354  and  _355
REMARK                            x       y       z     vdW  Elec       q    Type
REMARK                         _______ _______ _______ _____ _____    ______ ____
ROOT
ATOM      1  O   HOH     1      40.260  62.611   6.159  0.00  0.00    +0.000 OA
ENDROOT
TORSDOF 0
REMARK  Name = ../refined-set-2016/3dx1/3dx1_pocket.pdb
REMARK  129 active torsions:
REMARK  status: ('A' for Active; 'I' for Inactive)
REMARK    1  A    between atoms: _1  and  _3
REMARK    2  A    between atoms: _14  and  _17
REMARK    3  A    between atoms: _17  and  _18
REMARK    4  A    between atoms: _25  and  _26
REMARK    5  A    between atoms: _33  and  _34
REMARK    6  A    between atoms: _39  and  _41
REMARK    7  A    between atoms: _41  and  _42
REMARK    8  A    between atoms: _44  and  _46
REMARK    9  A    between atoms: _46  and  _47
REMARK   10  A    between atoms: _46  and  _49
REMARK   11  A    between atoms: _49  and  _50
REMARK   12  A    between atoms: _60  and  _62
REMARK   13  A    between atoms: _62  and  _63
REMARK   14  A    between atoms: _62  and  _65
REMARK   15  A    between atoms: _65  and  _66
REMARK   16  A    between atoms: _69  and  _71
REMARK   17  A    between atoms: _71  and  _72
REMARK   18  A    between atoms: _71  and  _74
REMARK   19  A    between atoms: _74  and  _75
REMARK   20  A    between atoms: _80  and  _81
REMARK   21  A    between atoms: _83  and  _85
REMARK   22  A    between atoms: _85  and  _86
REMARK   23  A    between atoms: _85  and  _88
REMARK   24  A    between atoms: _88  and  _89
REMARK   25  A    between atoms: _89  and  _90
REMARK   26  A    between atoms: _93  and  _95
REMARK   27  A    between atoms: _95  and  _96
REMARK   28  A    between atoms: _95  and  _98
REMARK   29  A    between atoms: _98  and  _99
REMARK   30  A    between atoms: _99  and  _100
REMARK   31  A    between atoms: _102  and  _104
REMARK   32  A    between atoms: _104  and  _105
REMARK   33  A    between atoms: _104  and  _107
REMARK   34  A    between atoms: _107  and  _108
REMARK   35  A    between atoms: _111  and  _113
REMARK   36  A    between atoms: _113  and  _114
REMARK   37  A    between atoms: _113  and  _116
REMARK   38  A    between atoms: _116  and  _117
REMARK   39  A    between atoms: _117  and  _119
REMARK   40  A    between atoms: _119  and  ZN_358
REMARK   41  A    between atoms: _121  and  _122
REMARK   42  A    between atoms: _127  and  _129
REMARK   43  A    between atoms: _129  and  _130
REMARK   44  A    between atoms: _129  and  _132
REMARK   45  A    between atoms: _132  and  _133
REMARK   46  A    between atoms: _139  and  _141
REMARK   47  A    between atoms: _141  and  _142
REMARK   48  A    between atoms: _141  and  _144
REMARK   49  A    between atoms: _144  and  _145
REMARK   50  A    between atoms: _145  and  _146
REMARK   51  A    between atoms: _146  and  _147
REMARK   52  A    between atoms: _156  and  _158
REMARK   53  A    between atoms: _158  and  _159
REMARK   54  A    between atoms: _158  and  _161
REMARK   55  A    between atoms: _161  and  _162
REMARK   56  A    between atoms: _164  and  _166
REMARK   57  A    between atoms: _166  and  _167
REMARK   58  A    between atoms: _166  and  _169
REMARK   59  A    between atoms: _169  and  _170
REMARK   60  A    between atoms: _175  and  _176
REMARK   61  A    between atoms: _178  and  _180
REMARK   62  A    between atoms: _180  and  _181
REMARK   63  A    between atoms: _180  and  _183
REMARK   64  A    between atoms: _183  and  _184
REMARK   65  A    between atoms: _187  and  _189
REMARK   66  A    between atoms: _189  and  _190
REMARK   67  A    between atoms: _189  and  _192
REMARK   68  A    between atoms: _192  and  _193
REMARK   69  A    between atoms: _196  and  _198
REMARK   70  A    between atoms: _198  and  _199
REMARK   71  A    between atoms: _198  and  _201
REMARK   72  A    between atoms: _201  and  _202
REMARK   73  A    between atoms: _205  and  _207
REMARK   74  A    between atoms: _207  and  _208
REMARK   75  A    between atoms: _207  and  _210
REMARK   76  A    between atoms: _210  and  _211
REMARK   77  A    between atoms: _217  and  _219
REMARK   78  A    between atoms: _219  and  _220
REMARK   79  A    between atoms: _219  and  _222
REMARK   80  A    between atoms: _222  and  _223
REMARK   81  A    between atoms: _228  and  _229
REMARK   82  A    between atoms: _231  and  _233
REMARK   83  A    between atoms: _233  and  _234
REMARK   84  A    between atoms: _233  and  _236
REMARK   85  A    between atoms: _236  and  _237
REMARK   86  A    between atoms: _247  and  _249
REMARK   87  A    between atoms: _249  and  _250
REMARK   88  A    between atoms: _249  and  _252
REMARK   89  A    between atoms: _252  and  _253
REMARK   90  A    between atoms: _258  and  _260
REMARK   91  A    between atoms: _260  and  _261
REMARK   92  A    between atoms: _260  and  _263
REMARK   93  A    between atoms: _263  and  _264
REMARK   94  A    between atoms: _268  and  ZN_358
REMARK   95  A    between atoms: _269  and  _271
REMARK   96  A    between atoms: _271  and  _272
REMARK   97  A    between atoms: _271  and  _274
REMARK   98  A    between atoms: _274  and  _275
REMARK   99  A    between atoms: _278  and  _280
REMARK  100  A    between atoms: _280  and  _281
REMARK  101  A    between atoms: _283  and  _285
REMARK  102  A    between atoms: _285  and  _286
REMARK  103  A    between atoms: _285  and  _288
REMARK  104  A    between atoms: _288  and  _289
REMARK  105  A    between atoms: _292  and  _294
REMARK  106  A    between atoms: _294  and  _295
REMARK  107  A    between atoms: _294  and  _297
REMARK  108  A    between atoms: _297  and  _298
REMARK  109  A    between atoms: _301  and  _303
REMARK  110  A    between atoms: _303  and  _304
REMARK  111  A    between atoms: _307  and  _309
REMARK  112  A    between atoms: _309  and  _310
REMARK  113  A    between atoms: _313  and  _315
REMARK  114  A    between atoms: _315  and  _316
REMARK  115  A    between atoms: _315  and  _318
REMARK  116  A    between atoms: _318  and  _319
REMARK  117  A    between atoms: _324  and  _325
REMARK  118  A    between atoms: _327  and  _329
REMARK  119  A    between atoms: _329  and  _330
REMARK  120  A    between atoms: _329  and  _332
REMARK  121  A    between atoms: _332  and  _333
REMARK  122  A    between atoms: _333  and  _334
REMARK  123  A    between atoms: _334  and  _335
REMARK  124  A    between atoms: _344  and  _346
REMARK  125  A    between atoms: _346  and  _347
REMARK  126  A    between atoms: _349  and  _351
REMARK  127  A    between atoms: _351  and  _352
REMARK  128  A    between atoms: _351  and  _354
REMARK  129  A    between atoms: _354  and  _355
REMARK                            x       y       z     vdW  Elec       q    Type
REMARK                         _______ _______ _______ _____ _____    ______ ____
ROOT
ATOM      1  O   HOH     1      26.999  59.022   8.250  0.00  0.00    +0.000 OA
ENDROOT
TORSDOF 0
REMARK  Name = ../refined-set-2016/3dx1/3dx1_pocket.pdb
REMARK  129 active torsions:
REMARK  status: ('A' for Active; 'I' for Inactive)
REMARK    1  A    between atoms: _1  and  _3
REMARK    2  A    between atoms: _14  and  _17
REMARK    3  A    between atoms: _17  and  _18
REMARK    4  A    between atoms: _25  and  _26
REMARK    5  A    between atoms: _33  and  _34
REMARK    6  A    between atoms: _39  and  _41
REMARK    7  A    between atoms: _41  and  _42
REMARK    8  A    between atoms: _44  and  _46
REMARK    9  A    between atoms: _46  and  _47
REMARK   10  A    between atoms: _46  and  _49
REMARK   11  A    between atoms: _49  and  _50
REMARK   12  A    between atoms: _60  and  _62
REMARK   13  A    between atoms: _62  and  _63
REMARK   14  A    between atoms: _62  and  _65
REMARK   15  A    between atoms: _65  and  _66
REMARK   16  A    between atoms: _69  and  _71
REMARK   17  A    between atoms: _71  and  _72
REMARK   18  A    between atoms: _71  and  _74
REMARK   19  A    between atoms: _74  and  _75
REMARK   20  A    between atoms: _80  and  _81
REMARK   21  A    between atoms: _83  and  _85
REMARK   22  A    between atoms: _85  and  _86
REMARK   23  A    between atoms: _85  and  _88
REMARK   24  A    between atoms: _88  and  _89
REMARK   25  A    between atoms: _89  and  _90
REMARK   26  A    between atoms: _93  and  _95
REMARK   27  A    between atoms: _95  and  _96
REMARK   28  A    between atoms: _95  and  _98
REMARK   29  A    between atoms: _98  and  _99
REMARK   30  A    between atoms: _99  and  _100
REMARK   31  A    between atoms: _102  and  _104
REMARK   32  A    between atoms: _104  and  _105
REMARK   33  A    between atoms: _104  and  _107
REMARK   34  A    between atoms: _107  and  _108
REMARK   35  A    between atoms: _111  and  _113
REMARK   36  A    between atoms: _113  and  _114
REMARK   37  A    between atoms: _113  and  _116
REMARK   38  A    between atoms: _116  and  _117
REMARK   39  A    between atoms: _117  and  _119
REMARK   40  A    between atoms: _119  and  ZN_358
REMARK   41  A    between atoms: _121  and  _122
REMARK   42  A    between atoms: _127  and  _129
REMARK   43  A    between atoms: _129  and  _130
REMARK   44  A    between atoms: _129  and  _132
REMARK   45  A    between atoms: _132  and  _133
REMARK   46  A    between atoms: _139  and  _141
REMARK   47  A    between atoms: _141  and  _142
REMARK   48  A    between atoms: _141  and  _144
REMARK   49  A    between atoms: _144  and  _145
REMARK   50  A    between atoms: _145  and  _146
REMARK   51  A    between atoms: _146  and  _147
REMARK   52  A    between atoms: _156  and  _158
REMARK   53  A    between atoms: _158  and  _159
REMARK   54  A    between atoms: _158  and  _161
REMARK   55  A    between atoms: _161  and  _162
REMARK   56  A    between atoms: _164  and  _166
REMARK   57  A    between atoms: _166  and  _167
REMARK   58  A    between atoms: _166  and  _169
REMARK   59  A    between atoms: _169  and  _170
REMARK   60  A    between atoms: _175  and  _176
REMARK   61  A    between atoms: _178  and  _180
REMARK   62  A    between atoms: _180  and  _181
REMARK   63  A    between atoms: _180  and  _183
REMARK   64  A    between atoms: _183  and  _184
REMARK   65  A    between atoms: _187  and  _189
REMARK   66  A    between atoms: _189  and  _190
REMARK   67  A    between atoms: _189  and  _192
REMARK   68  A    between atoms: _192  and  _193
REMARK   69  A    between atoms: _196  and  _198
REMARK   70  A    between atoms: _198  and  _199
REMARK   71  A    between atoms: _198  and  _201
REMARK   72  A    between atoms: _201  and  _202
REMARK   73  A    between atoms: _205  and  _207
REMARK   74  A    between atoms: _207  and  _208
REMARK   75  A    between atoms: _207  and  _210
REMARK   76  A    between atoms: _210  and  _211
REMARK   77  A    between atoms: _217  and  _219
REMARK   78  A    between atoms: _219  and  _220
REMARK   79  A    between atoms: _219  and  _222
REMARK   80  A    between atoms: _222  and  _223
REMARK   81  A    between atoms: _228  and  _229
REMARK   82  A    between atoms: _231  and  _233
REMARK   83  A    between atoms: _233  and  _234
REMARK   84  A    between atoms: _233  and  _236
REMARK   85  A    between atoms: _236  and  _237
REMARK   86  A    between atoms: _247  and  _249
REMARK   87  A    between atoms: _249  and  _250
REMARK   88  A    between atoms: _249  and  _252
REMARK   89  A    between atoms: _252  and  _253
REMARK   90  A    between atoms: _258  and  _260
REMARK   91  A    between atoms: _260  and  _261
REMARK   92  A    between atoms: _260  and  _263
REMARK   93  A    between atoms: _263  and  _264
REMARK   94  A    between atoms: _268  and  ZN_358
REMARK   95  A    between atoms: _269  and  _271
REMARK   96  A    between atoms: _271  and  _272
REMARK   97  A    between atoms: _271  and  _274
REMARK   98  A    between atoms: _274  and  _275
REMARK   99  A    between atoms: _278  and  _280
REMARK  100  A    between atoms: _280  and  _281
REMARK  101  A    between atoms: _283  and  _285
REMARK  102  A    between atoms: _285  and  _286
REMARK  103  A    between atoms: _285  and  _288
REMARK  104  A    between atoms: _288  and  _289
REMARK  105  A    between atoms: _292  and  _294
REMARK  106  A    between atoms: _294  and  _295
REMARK  107  A    between atoms: _294  and  _297
REMARK  108  A    between atoms: _297  and  _298
REMARK  109  A    between atoms: _301  and  _303
REMARK  110  A    between atoms: _303  and  _304
REMARK  111  A    between atoms: _307  and  _309
REMARK  112  A    between atoms: _309  and  _310
REMARK  113  A    between atoms: _313  and  _315
REMARK  114  A    between atoms: _315  and  _316
REMARK  115  A    between atoms: _315  and  _318
REMARK  116  A    between atoms: _318  and  _319
REMARK  117  A    between atoms: _324  and  _325
REMARK  118  A    between atoms: _327  and  _329
REMARK  119  A    between atoms: _329  and  _330
REMARK  120  A    between atoms: _329  and  _332
REMARK  121  A    between atoms: _332  and  _333
REMARK  122  A    between atoms: _333  and  _334
REMARK  123  A    between atoms: _334  and  _335
REMARK  124  A    between atoms: _344  and  _346
REMARK  125  A    between atoms: _346  and  _347
REMARK  126  A    between atoms: _349  and  _351
REMARK  127  A    between atoms: _351  and  _352
REMARK  128  A    between atoms: _351  and  _354
REMARK  129  A    between atoms: _354  and  _355
REMARK                            x       y       z     vdW  Elec       q    Type
REMARK                         _______ _______ _______ _____ _____    ______ ____
ROOT
ATOM      1  O   HOH     1      29.134  59.772   8.070  0.00  0.00    +0.000 OA
ENDROOT
TORSDOF 0
