REMARK  Name = ../refined-set-2016/5cp9/5cp9_pocket.pdb
REMARK  91 active torsions:
REMARK  status: ('A' for Active; 'I' for Inactive)
REMARK    1  A    between atoms: _1  and  _3
REMARK    2  A    between atoms: _3  and  _4
REMARK    3  A    between atoms: _3  and  _6
REMARK    4  A    between atoms: _6  and  _7
REMARK    5  A    between atoms: _17  and  _19
REMARK    6  A    between atoms: _19  and  _20
REMARK    7  A    between atoms: _19  and  _22
REMARK    8  A    between atoms: _22  and  _23
REMARK    9  A    between atoms: _28  and  _30
REMARK   10  A    between atoms: _30  and  _31
REMARK   11  A    between atoms: _30  and  _33
REMARK   12  A    between atoms: _33  and  _34
REMARK   13  A    between atoms: _34  and  _35
REMARK   14  A    between atoms: _38  and  _40
REMARK   15  A    between atoms: _40  and  _41
REMARK   16  A    between atoms: _40  and  _43
REMARK   17  A    between atoms: _43  and  _44
REMARK   18  A    between atoms: _49  and  _51
REMARK   19  A    between atoms: _51  and  _52
REMARK   20  A    between atoms: _51  and  _54
REMARK   21  A    between atoms: _54  and  _55
REMARK   22  A    between atoms: _57  and  _59
REMARK   23  A    between atoms: _59  and  _60
REMARK   24  A    between atoms: _59  and  _62
REMARK   25  A    between atoms: _62  and  _63
REMARK   26  A    between atoms: _69  and  _71
REMARK   27  A    between atoms: _71  and  _72
REMARK   28  A    between atoms: _71  and  _74
REMARK   29  A    between atoms: _74  and  _75
REMARK   30  A    between atoms: _80  and  _81
REMARK   31  A    between atoms: _83  and  _85
REMARK   32  A    between atoms: _85  and  _86
REMARK   33  A    between atoms: _85  and  _88
REMARK   34  A    between atoms: _88  and  _89
REMARK   35  A    between atoms: _89  and  _90
REMARK   36  A    between atoms: _90  and  _91
REMARK   37  A    between atoms: _100  and  _102
REMARK   38  A    between atoms: _102  and  _103
REMARK   39  A    between atoms: _102  and  _105
REMARK   40  A    between atoms: _105  and  _106
REMARK   41  A    between atoms: _112  and  _113
REMARK   42  A    between atoms: _118  and  _120
REMARK   43  A    between atoms: _120  and  _121
REMARK   44  A    between atoms: _120  and  _123
REMARK   45  A    between atoms: _123  and  _124
REMARK   46  A    between atoms: _124  and  _125
REMARK   47  A    between atoms: _125  and  _126
REMARK   48  A    between atoms: _135  and  _137
REMARK   49  A    between atoms: _137  and  _138
REMARK   50  A    between atoms: _137  and  _140
REMARK   51  A    between atoms: _140  and  _141
REMARK   52  A    between atoms: _141  and  _142
REMARK   53  A    between atoms: _145  and  _147
REMARK   54  A    between atoms: _147  and  _148
REMARK   55  A    between atoms: _147  and  _150
REMARK   56  A    between atoms: _150  and  _151
REMARK   57  A    between atoms: _151  and  _152
REMARK   58  A    between atoms: _155  and  _157
REMARK   59  A    between atoms: _157  and  _158
REMARK   60  A    between atoms: _160  and  _162
REMARK   61  A    between atoms: _162  and  _163
REMARK   62  A    between atoms: _165  and  _167
REMARK   63  A    between atoms: _167  and  _168
REMARK   64  A    between atoms: _167  and  _170
REMARK   65  A    between atoms: _170  and  _171
REMARK   66  A    between atoms: _181  and  _183
REMARK   67  A    between atoms: _183  and  _184
REMARK   68  A    between atoms: _183  and  _186
REMARK   69  A    between atoms: _188  and  _190
REMARK   70  A    between atoms: _190  and  _191
REMARK   71  A    between atoms: _190  and  _193
REMARK   72  A    between atoms: _193  and  _194
REMARK   73  A    between atoms: _200  and  _202
REMARK   74  A    between atoms: _202  and  _203
REMARK   75  A    between atoms: _202  and  _205
REMARK   76  A    between atoms: _205  and  _206
REMARK   77  A    between atoms: _206  and  _207
REMARK   78  A    between atoms: _207  and  _208
REMARK   79  A    between atoms: _217  and  _219
REMARK   80  A    between atoms: _219  and  _220
REMARK   81  A    between atoms: _219  and  _222
REMARK   82  A    between atoms: _222  and  _223
REMARK   83  A    between atoms: _228  and  _229
REMARK   84  A    between atoms: _231  and  _233
REMARK   85  A    between atoms: _233  and  _234
REMARK   86  A    between atoms: _233  and  _236
REMARK   87  A    between atoms: _236  and  _237
REMARK   88  A    between atoms: _237  and  _238
REMARK   89  A    between atoms: _241  and  _243
REMARK   90  A    between atoms: _243  and  _244
REMARK   91  A    between atoms: _243  and  _246
REMARK                            x       y       z     vdW  Elec       q    Type
REMARK                         _______ _______ _______ _____ _____    ______ ____
ROOT
ATOM      1  CG  TRP A   1      -5.287  35.285  -1.950  0.00  0.00    -0.002 A 
ATOM      2  CD1 TRP A   1      -4.365  35.202  -0.934  0.00  0.00    +0.068 A 
ATOM      3  NE1 TRP A   1      -3.493  34.169  -1.174  0.00  0.00    -0.352 N 
ATOM      4  HE1 TRP A   1      -2.704  33.889  -0.557  0.00  0.00    +0.166 HD
ATOM      5  CE2 TRP A   1      -3.831  33.565  -2.361  0.00  0.00    +0.056 A 
ATOM      6  CZ2 TRP A   1      -3.233  32.477  -3.027  0.00  0.00    +0.017 A 
ATOM      7  CH2 TRP A   1      -3.787  32.077  -4.220  0.00  0.00    +0.001 A 
ATOM      8  CZ3 TRP A   1      -4.911  32.734  -4.764  0.00  0.00    +0.000 A 
ATOM      9  CE3 TRP A   1      -5.506  33.819  -4.100  0.00  0.00    +0.001 A 
ATOM     10  CD2 TRP A   1      -4.953  34.250  -2.882  0.00  0.00    +0.013 A 
ENDROOT
BRANCH   1  11
ATOM     11  CB  TRP A   1      -6.396  36.302  -2.086  0.00  0.00    +0.053 C 
BRANCH  11  12
ATOM     12  CA  TRP A   1      -6.036  37.424  -3.079  0.00  0.00    +0.137 C 
BRANCH  12  13
ATOM     13  N   TRP A   1      -4.853  38.158  -2.622  0.00  0.00    -0.239 NA
ATOM     14  H   TRP A   1      -4.411  37.882  -1.722  0.00  0.00    +0.142 HD
ENDBRANCH  12  13
BRANCH  12  15
ATOM     15  C   TRP A   1      -7.237  38.359  -3.321  0.00  0.00    +0.224 C 
ATOM     16  O   TRP A   1      -8.016  38.143  -4.245  0.00  0.00    -0.287 OA
ENDBRANCH  12  15
ENDBRANCH  11  12
ENDBRANCH   1  11
TORSDOF 4
REMARK  Name = ../refined-set-2016/5cp9/5cp9_pocket.pdb
REMARK  91 active torsions:
REMARK  status: ('A' for Active; 'I' for Inactive)
REMARK    1  A    between atoms: _1  and  _3
REMARK    2  A    between atoms: _3  and  _4
REMARK    3  A    between atoms: _3  and  _6
REMARK    4  A    between atoms: _6  and  _7
REMARK    5  A    between atoms: _17  and  _19
REMARK    6  A    between atoms: _19  and  _20
REMARK    7  A    between atoms: _19  and  _22
REMARK    8  A    between atoms: _22  and  _23
REMARK    9  A    between atoms: _28  and  _30
REMARK   10  A    between atoms: _30  and  _31
REMARK   11  A    between atoms: _30  and  _33
REMARK   12  A    between atoms: _33  and  _34
REMARK   13  A    between atoms: _34  and  _35
REMARK   14  A    between atoms: _38  and  _40
REMARK   15  A    between atoms: _40  and  _41
REMARK   16  A    between atoms: _40  and  _43
REMARK   17  A    between atoms: _43  and  _44
REMARK   18  A    between atoms: _49  and  _51
REMARK   19  A    between atoms: _51  and  _52
REMARK   20  A    between atoms: _51  and  _54
REMARK   21  A    between atoms: _54  and  _55
REMARK   22  A    between atoms: _57  and  _59
REMARK   23  A    between atoms: _59  and  _60
REMARK   24  A    between atoms: _59  and  _62
REMARK   25  A    between atoms: _62  and  _63
REMARK   26  A    between atoms: _69  and  _71
REMARK   27  A    between atoms: _71  and  _72
REMARK   28  A    between atoms: _71  and  _74
REMARK   29  A    between atoms: _74  and  _75
REMARK   30  A    between atoms: _80  and  _81
REMARK   31  A    between atoms: _83  and  _85
REMARK   32  A    between atoms: _85  and  _86
REMARK   33  A    between atoms: _85  and  _88
REMARK   34  A    between atoms: _88  and  _89
REMARK   35  A    between atoms: _89  and  _90
REMARK   36  A    between atoms: _90  and  _91
REMARK   37  A    between atoms: _100  and  _102
REMARK   38  A    between atoms: _102  and  _103
REMARK   39  A    between atoms: _102  and  _105
REMARK   40  A    between atoms: _105  and  _106
REMARK   41  A    between atoms: _112  and  _113
REMARK   42  A    between atoms: _118  and  _120
REMARK   43  A    between atoms: _120  and  _121
REMARK   44  A    between atoms: _120  and  _123
REMARK   45  A    between atoms: _123  and  _124
REMARK   46  A    between atoms: _124  and  _125
REMARK   47  A    between atoms: _125  and  _126
REMARK   48  A    between atoms: _135  and  _137
REMARK   49  A    between atoms: _137  and  _138
REMARK   50  A    between atoms: _137  and  _140
REMARK   51  A    between atoms: _140  and  _141
REMARK   52  A    between atoms: _141  and  _142
REMARK   53  A    between atoms: _145  and  _147
REMARK   54  A    between atoms: _147  and  _148
REMARK   55  A    between atoms: _147  and  _150
REMARK   56  A    between atoms: _150  and  _151
REMARK   57  A    between atoms: _151  and  _152
REMARK   58  A    between atoms: _155  and  _157
REMARK   59  A    between atoms: _157  and  _158
REMARK   60  A    between atoms: _160  and  _162
REMARK   61  A    between atoms: _162  and  _163
REMARK   62  A    between atoms: _165  and  _167
REMARK   63  A    between atoms: _167  and  _168
REMARK   64  A    between atoms: _167  and  _170
REMARK   65  A    between atoms: _170  and  _171
REMARK   66  A    between atoms: _181  and  _183
REMARK   67  A    between atoms: _183  and  _184
REMARK   68  A    between atoms: _183  and  _186
REMARK   69  A    between atoms: _188  and  _190
REMARK   70  A    between atoms: _190  and  _191
REMARK   71  A    between atoms: _190  and  _193
REMARK   72  A    between atoms: _193  and  _194
REMARK   73  A    between atoms: _200  and  _202
REMARK   74  A    between atoms: _202  and  _203
REMARK   75  A    between atoms: _202  and  _205
REMARK   76  A    between atoms: _205  and  _206
REMARK   77  A    between atoms: _206  and  _207
REMARK   78  A    between atoms: _207  and  _208
REMARK   79  A    between atoms: _217  and  _219
REMARK   80  A    between atoms: _219  and  _220
REMARK   81  A    between atoms: _219  and  _222
REMARK   82  A    between atoms: _222  and  _223
REMARK   83  A    between atoms: _228  and  _229
REMARK   84  A    between atoms: _231  and  _233
REMARK   85  A    between atoms: _233  and  _234
REMARK   86  A    between atoms: _233  and  _236
REMARK   87  A    between atoms: _236  and  _237
REMARK   88  A    between atoms: _237  and  _238
REMARK   89  A    between atoms: _241  and  _243
REMARK   90  A    between atoms: _243  and  _244
REMARK   91  A    between atoms: _243  and  _246
REMARK                            x       y       z     vdW  Elec       q    Type
REMARK                         _______ _______ _______ _____ _____    ______ ____
ROOT
ATOM      1  CA  HIS A   3      -8.878  35.822 -11.048  0.00  0.00    +0.155 C 
ENDROOT
BRANCH   1   3
ATOM      2  C   GLU A   2      -7.973  37.608 -12.424  0.00  0.00    +0.241 C 
ATOM      3  N   HIS A   3      -8.766  37.227 -11.431  0.00  0.00    -0.297 N 
ATOM      4  H   HIS A   3      -9.318  37.942 -10.916  0.00  0.00    +0.150 HD
ATOM      5  O   GLU A   2      -7.372  36.815 -13.146  0.00  0.00    -0.273 OA
BRANCH   2   6
ATOM      6  CA  GLU A   2      -7.837  39.096 -12.648  0.00  0.00    +0.149 C 
BRANCH   6   9
ATOM      7  C   HIS A   1      -5.537  39.439 -11.969  0.00  0.00    +0.239 C 
ATOM      8  O   HIS A   1      -5.833  39.364 -10.775  0.00  0.00    -0.274 OA
ATOM      9  N   GLU A   2      -6.446  39.394 -12.941  0.00  0.00    -0.297 N 
ATOM     10  H   GLU A   2      -6.156  39.575 -13.923  0.00  0.00    +0.150 HD
BRANCH   7  11
ATOM     11  CA  HIS A   1      -4.099  39.613 -12.421  0.00  0.00    +0.151 C 
BRANCH  11  12
ATOM     12  N   HIS A   1      -3.385  40.724 -11.797  0.00  0.00    -0.238 NA
ATOM     13  H   HIS A   1      -3.120  40.669 -10.793  0.00  0.00    +0.142 HD
ENDBRANCH  11  12
BRANCH  11  14
ATOM     14  CB  HIS A   1      -3.275  38.323 -12.270  0.00  0.00    +0.074 C 
BRANCH  14  15
ATOM     15  CG  HIS A   1      -1.862  38.489 -12.719  0.00  0.00    +0.082 A 
ATOM     16  ND1 HIS A   1      -0.809  38.588 -11.838  0.00  0.00    -0.227 NA
ATOM     17  CE1 HIS A   1       0.310  38.770 -12.514  0.00  0.00    +0.199 A 
ATOM     18  NE2 HIS A   1       0.017  38.817 -13.800  0.00  0.00    -0.221 NA
ATOM     19  CD2 HIS A   1      -1.335  38.658 -13.955  0.00  0.00    +0.115 A 
ENDBRANCH  14  15
ENDBRANCH  11  14
ENDBRANCH   7  11
ENDBRANCH   6   9
BRANCH   6  20
ATOM     20  CB  GLU A   2      -8.734  39.507 -13.807  0.00  0.00    +0.041 C 
BRANCH  20  21
ATOM     21  CG  GLU A   2      -9.234  40.916 -13.742  0.00  0.00    +0.116 C 
BRANCH  21  22
ATOM     22  CD  GLU A   2     -10.375  41.127 -14.721  0.00  0.00    +0.365 C 
ATOM     23  OE2 GLU A   2     -11.481  41.482 -14.280  0.00  0.00    -0.246 OA
ATOM     24  OE1 GLU A   2     -10.160  40.912 -15.927  0.00  0.00    -0.246 OA
ENDBRANCH  21  22
ENDBRANCH  20  21
ENDBRANCH   6  20
ENDBRANCH   2   6
ENDBRANCH   1   3
BRANCH   1  25
ATOM     25  C   HIS A   3     -10.176  35.613 -10.298  0.00  0.00    +0.241 C 
ATOM     26  O   HIS A   3     -10.825  36.585  -9.894  0.00  0.00    -0.273 OA
ATOM     27  N   SER A   4     -10.532  34.350 -10.074  0.00  0.00    -0.295 N 
ATOM     28  H   SER A   4      -9.912  33.583 -10.403  0.00  0.00    +0.150 HD
BRANCH  27  29
ATOM     29  CA  SER A   4     -11.769  34.016  -9.380  0.00  0.00    +0.178 C 
BRANCH  29  30
ATOM     30  C   SER A   4     -11.537  33.351  -8.019  0.00  0.00    +0.243 C 
ATOM     31  O   SER A   4     -12.467  32.805  -7.435  0.00  0.00    -0.273 OA
ATOM     32  N   PHE A   5     -10.301  33.418  -7.515  0.00  0.00    -0.298 N 
ATOM     33  H   PHE A   5      -9.552  33.858  -8.086  0.00  0.00    +0.150 HD
BRANCH  32  34
ATOM     34  CA  PHE A   5      -9.959  32.894  -6.183  0.00  0.00    +0.141 C 
BRANCH  34  35
ATOM     35  C   PHE A   5     -10.264  33.913  -5.087  0.00  0.00    +0.227 C 
ATOM     36  O   PHE A   5      -9.385  34.293  -4.295  0.00  0.00    -0.286 OA
ENDBRANCH  34  35
BRANCH  34  37
ATOM     37  CB  PHE A   5      -8.490  32.441  -6.135  0.00  0.00    +0.054 C 
BRANCH  37  38
ATOM     38  CG  PHE A   5      -8.205  31.208  -6.965  0.00  0.00    -0.020 A 
ATOM     39  CD2 PHE A   5      -8.237  29.944  -6.390  0.00  0.00    -0.004 A 
ATOM     40  CE2 PHE A   5      -7.989  28.799  -7.156  0.00  0.00    -0.000 A 
ATOM     41  CZ  PHE A   5      -7.703  28.927  -8.509  0.00  0.00    -0.000 A 
ATOM     42  CE1 PHE A   5      -7.688  30.193  -9.092  0.00  0.00    -0.000 A 
ATOM     43  CD1 PHE A   5      -7.931  31.316  -8.319  0.00  0.00    -0.004 A 
ENDBRANCH  37  38
ENDBRANCH  34  37
ENDBRANCH  32  34
ENDBRANCH  29  30
BRANCH  29  44
ATOM     44  CB  SER A   4     -12.658  33.138 -10.271  0.00  0.00    +0.166 C 
BRANCH  44  45
ATOM     45  OG  SER A   4     -11.989  31.938 -10.634  0.00  0.00    -0.380 OA
ATOM     46  H   SER A   4     -11.162  32.160 -11.131  0.00  0.00    +0.211 HD
ENDBRANCH  44  45
ENDBRANCH  29  44
ENDBRANCH  27  29
ENDBRANCH   1  25
BRANCH   1  47
ATOM     47  CB  HIS A   3      -7.686  35.419 -10.160  0.00  0.00    +0.076 C 
BRANCH  47  48
ATOM     48  CG  HIS A   3      -7.740  36.004  -8.785  0.00  0.00    +0.082 A 
ATOM     49  CD2 HIS A   3      -8.343  35.563  -7.658  0.00  0.00    +0.115 A 
ATOM     50  NE2 HIS A   3      -8.104  36.493  -6.676  0.00  0.00    -0.221 NA
ATOM     51  CE1 HIS A   3      -7.376  37.474  -7.182  0.00  0.00    +0.199 A 
ATOM     52  ND1 HIS A   3      -7.143  37.205  -8.455  0.00  0.00    -0.227 NA
ENDBRANCH  47  48
ENDBRANCH   1  47
TORSDOF 21
REMARK  Name = ../refined-set-2016/5cp9/5cp9_pocket.pdb
REMARK  91 active torsions:
REMARK  status: ('A' for Active; 'I' for Inactive)
REMARK    1  A    between atoms: _1  and  _3
REMARK    2  A    between atoms: _3  and  _4
REMARK    3  A    between atoms: _3  and  _6
REMARK    4  A    between atoms: _6  and  _7
REMARK    5  A    between atoms: _17  and  _19
REMARK    6  A    between atoms: _19  and  _20
REMARK    7  A    between atoms: _19  and  _22
REMARK    8  A    between atoms: _22  and  _23
REMARK    9  A    between atoms: _28  and  _30
REMARK   10  A    between atoms: _30  and  _31
REMARK   11  A    between atoms: _30  and  _33
REMARK   12  A    between atoms: _33  and  _34
REMARK   13  A    between atoms: _34  and  _35
REMARK   14  A    between atoms: _38  and  _40
REMARK   15  A    between atoms: _40  and  _41
REMARK   16  A    between atoms: _40  and  _43
REMARK   17  A    between atoms: _43  and  _44
REMARK   18  A    between atoms: _49  and  _51
REMARK   19  A    between atoms: _51  and  _52
REMARK   20  A    between atoms: _51  and  _54
REMARK   21  A    between atoms: _54  and  _55
REMARK   22  A    between atoms: _57  and  _59
REMARK   23  A    between atoms: _59  and  _60
REMARK   24  A    between atoms: _59  and  _62
REMARK   25  A    between atoms: _62  and  _63
REMARK   26  A    between atoms: _69  and  _71
REMARK   27  A    between atoms: _71  and  _72
REMARK   28  A    between atoms: _71  and  _74
REMARK   29  A    between atoms: _74  and  _75
REMARK   30  A    between atoms: _80  and  _81
REMARK   31  A    between atoms: _83  and  _85
REMARK   32  A    between atoms: _85  and  _86
REMARK   33  A    between atoms: _85  and  _88
REMARK   34  A    between atoms: _88  and  _89
REMARK   35  A    between atoms: _89  and  _90
REMARK   36  A    between atoms: _90  and  _91
REMARK   37  A    between atoms: _100  and  _102
REMARK   38  A    between atoms: _102  and  _103
REMARK   39  A    between atoms: _102  and  _105
REMARK   40  A    between atoms: _105  and  _106
REMARK   41  A    between atoms: _112  and  _113
REMARK   42  A    between atoms: _118  and  _120
REMARK   43  A    between atoms: _120  and  _121
REMARK   44  A    between atoms: _120  and  _123
REMARK   45  A    between atoms: _123  and  _124
REMARK   46  A    between atoms: _124  and  _125
REMARK   47  A    between atoms: _125  and  _126
REMARK   48  A    between atoms: _135  and  _137
REMARK   49  A    between atoms: _137  and  _138
REMARK   50  A    between atoms: _137  and  _140
REMARK   51  A    between atoms: _140  and  _141
REMARK   52  A    between atoms: _141  and  _142
REMARK   53  A    between atoms: _145  and  _147
REMARK   54  A    between atoms: _147  and  _148
REMARK   55  A    between atoms: _147  and  _150
REMARK   56  A    between atoms: _150  and  _151
REMARK   57  A    between atoms: _151  and  _152
REMARK   58  A    between atoms: _155  and  _157
REMARK   59  A    between atoms: _157  and  _158
REMARK   60  A    between atoms: _160  and  _162
REMARK   61  A    between atoms: _162  and  _163
REMARK   62  A    between atoms: _165  and  _167
REMARK   63  A    between atoms: _167  and  _168
REMARK   64  A    between atoms: _167  and  _170
REMARK   65  A    between atoms: _170  and  _171
REMARK   66  A    between atoms: _181  and  _183
REMARK   67  A    between atoms: _183  and  _184
REMARK   68  A    between atoms: _183  and  _186
REMARK   69  A    between atoms: _188  and  _190
REMARK   70  A    between atoms: _190  and  _191
REMARK   71  A    between atoms: _190  and  _193
REMARK   72  A    between atoms: _193  and  _194
REMARK   73  A    between atoms: _200  and  _202
REMARK   74  A    between atoms: _202  and  _203
REMARK   75  A    between atoms: _202  and  _205
REMARK   76  A    between atoms: _205  and  _206
REMARK   77  A    between atoms: _206  and  _207
REMARK   78  A    between atoms: _207  and  _208
REMARK   79  A    between atoms: _217  and  _219
REMARK   80  A    between atoms: _219  and  _220
REMARK   81  A    between atoms: _219  and  _222
REMARK   82  A    between atoms: _222  and  _223
REMARK   83  A    between atoms: _228  and  _229
REMARK   84  A    between atoms: _231  and  _233
REMARK   85  A    between atoms: _233  and  _234
REMARK   86  A    between atoms: _233  and  _236
REMARK   87  A    between atoms: _236  and  _237
REMARK   88  A    between atoms: _237  and  _238
REMARK   89  A    between atoms: _241  and  _243
REMARK   90  A    between atoms: _243  and  _244
REMARK   91  A    between atoms: _243  and  _246
REMARK                            x       y       z     vdW  Elec       q    Type
REMARK                         _______ _______ _______ _____ _____    ______ ____
ROOT
ATOM      1  CG  TYR A   1     -11.466  29.251  -2.678  0.00  0.00    -0.020 A 
ATOM      2  CD2 TYR A   1     -11.350  27.909  -3.035  0.00  0.00    -0.001 A 
ATOM      3  CE2 TYR A   1     -11.425  27.512  -4.355  0.00  0.00    +0.036 A 
ATOM      4  CZ  TYR A   1     -11.621  28.457  -5.346  0.00  0.00    +0.134 A 
ATOM      5  CE1 TYR A   1     -11.743  29.800  -5.027  0.00  0.00    +0.036 A 
ATOM      6  CD1 TYR A   1     -11.667  30.191  -3.690  0.00  0.00    -0.001 A 
ENDROOT
BRANCH   4   7
ATOM      7  OH  TYR A   1     -11.692  28.038  -6.654  0.00  0.00    -0.506 OA
ATOM      8  HH  TYR A   1     -11.833  28.821  -7.243  0.00  0.00    +0.292 HD
ENDBRANCH   4   7
BRANCH   1   9
ATOM      9  CB  TYR A   1     -11.388  29.666  -1.237  0.00  0.00    +0.051 C 
BRANCH   9  10
ATOM     10  CA  TYR A   1     -12.746  29.652  -0.534  0.00  0.00    +0.137 C 
BRANCH  10  11
ATOM     11  N   TYR A   1     -13.609  30.697  -1.079  0.00  0.00    -0.239 NA
ATOM     12  H   TYR A   1     -13.412  31.692  -0.847  0.00  0.00    +0.142 HD
ENDBRANCH  10  11
BRANCH  10  13
ATOM     13  C   TYR A   1     -12.580  29.777   0.972  0.00  0.00    +0.224 C 
ATOM     14  O   TYR A   1     -11.476  29.985   1.482  0.00  0.00    -0.287 OA
ENDBRANCH  10  13
ENDBRANCH   9  10
ENDBRANCH   1   9
TORSDOF 5
REMARK  Name = ../refined-set-2016/5cp9/5cp9_pocket.pdb
REMARK  91 active torsions:
REMARK  status: ('A' for Active; 'I' for Inactive)
REMARK    1  A    between atoms: _1  and  _3
REMARK    2  A    between atoms: _3  and  _4
REMARK    3  A    between atoms: _3  and  _6
REMARK    4  A    between atoms: _6  and  _7
REMARK    5  A    between atoms: _17  and  _19
REMARK    6  A    between atoms: _19  and  _20
REMARK    7  A    between atoms: _19  and  _22
REMARK    8  A    between atoms: _22  and  _23
REMARK    9  A    between atoms: _28  and  _30
REMARK   10  A    between atoms: _30  and  _31
REMARK   11  A    between atoms: _30  and  _33
REMARK   12  A    between atoms: _33  and  _34
REMARK   13  A    between atoms: _34  and  _35
REMARK   14  A    between atoms: _38  and  _40
REMARK   15  A    between atoms: _40  and  _41
REMARK   16  A    between atoms: _40  and  _43
REMARK   17  A    between atoms: _43  and  _44
REMARK   18  A    between atoms: _49  and  _51
REMARK   19  A    between atoms: _51  and  _52
REMARK   20  A    between atoms: _51  and  _54
REMARK   21  A    between atoms: _54  and  _55
REMARK   22  A    between atoms: _57  and  _59
REMARK   23  A    between atoms: _59  and  _60
REMARK   24  A    between atoms: _59  and  _62
REMARK   25  A    between atoms: _62  and  _63
REMARK   26  A    between atoms: _69  and  _71
REMARK   27  A    between atoms: _71  and  _72
REMARK   28  A    between atoms: _71  and  _74
REMARK   29  A    between atoms: _74  and  _75
REMARK   30  A    between atoms: _80  and  _81
REMARK   31  A    between atoms: _83  and  _85
REMARK   32  A    between atoms: _85  and  _86
REMARK   33  A    between atoms: _85  and  _88
REMARK   34  A    between atoms: _88  and  _89
REMARK   35  A    between atoms: _89  and  _90
REMARK   36  A    between atoms: _90  and  _91
REMARK   37  A    between atoms: _100  and  _102
REMARK   38  A    between atoms: _102  and  _103
REMARK   39  A    between atoms: _102  and  _105
REMARK   40  A    between atoms: _105  and  _106
REMARK   41  A    between atoms: _112  and  _113
REMARK   42  A    between atoms: _118  and  _120
REMARK   43  A    between atoms: _120  and  _121
REMARK   44  A    between atoms: _120  and  _123
REMARK   45  A    between atoms: _123  and  _124
REMARK   46  A    between atoms: _124  and  _125
REMARK   47  A    between atoms: _125  and  _126
REMARK   48  A    between atoms: _135  and  _137
REMARK   49  A    between atoms: _137  and  _138
REMARK   50  A    between atoms: _137  and  _140
REMARK   51  A    between atoms: _140  and  _141
REMARK   52  A    between atoms: _141  and  _142
REMARK   53  A    between atoms: _145  and  _147
REMARK   54  A    between atoms: _147  and  _148
REMARK   55  A    between atoms: _147  and  _150
REMARK   56  A    between atoms: _150  and  _151
REMARK   57  A    between atoms: _151  and  _152
REMARK   58  A    between atoms: _155  and  _157
REMARK   59  A    between atoms: _157  and  _158
REMARK   60  A    between atoms: _160  and  _162
REMARK   61  A    between atoms: _162  and  _163
REMARK   62  A    between atoms: _165  and  _167
REMARK   63  A    between atoms: _167  and  _168
REMARK   64  A    between atoms: _167  and  _170
REMARK   65  A    between atoms: _170  and  _171
REMARK   66  A    between atoms: _181  and  _183
REMARK   67  A    between atoms: _183  and  _184
REMARK   68  A    between atoms: _183  and  _186
REMARK   69  A    between atoms: _188  and  _190
REMARK   70  A    between atoms: _190  and  _191
REMARK   71  A    between atoms: _190  and  _193
REMARK   72  A    between atoms: _193  and  _194
REMARK   73  A    between atoms: _200  and  _202
REMARK   74  A    between atoms: _202  and  _203
REMARK   75  A    between atoms: _202  and  _205
REMARK   76  A    between atoms: _205  and  _206
REMARK   77  A    between atoms: _206  and  _207
REMARK   78  A    between atoms: _207  and  _208
REMARK   79  A    between atoms: _217  and  _219
REMARK   80  A    between atoms: _219  and  _220
REMARK   81  A    between atoms: _219  and  _222
REMARK   82  A    between atoms: _222  and  _223
REMARK   83  A    between atoms: _228  and  _229
REMARK   84  A    between atoms: _231  and  _233
REMARK   85  A    between atoms: _233  and  _234
REMARK   86  A    between atoms: _233  and  _236
REMARK   87  A    between atoms: _236  and  _237
REMARK   88  A    between atoms: _237  and  _238
REMARK   89  A    between atoms: _241  and  _243
REMARK   90  A    between atoms: _243  and  _244
REMARK   91  A    between atoms: _243  and  _246
REMARK                            x       y       z     vdW  Elec       q    Type
REMARK                         _______ _______ _______ _____ _____    ______ ____
ROOT
ATOM      1  CA  ASN A   2      -3.130  25.828  -2.477  0.00  0.00    +0.158 C 
ENDROOT
BRANCH   1   2
ATOM      2  C   ASN A   2      -4.609  25.474  -2.293  0.00  0.00    +0.244 C 
ATOM      3  O   ASN A   2      -4.940  24.361  -1.873  0.00  0.00    -0.273 OA
ATOM      4  N   PRO A   3      -5.509  26.444  -2.574  0.00  0.00    -0.272 N 
ATOM      5  CA  PRO A   3      -6.938  26.337  -2.245  0.00  0.00    +0.152 C 
ATOM      6  CB  PRO A   3      -7.526  27.655  -2.772  0.00  0.00    +0.031 C 
ATOM      7  CG  PRO A   3      -6.569  28.113  -3.800  0.00  0.00    +0.024 C 
ATOM      8  CD  PRO A   3      -5.217  27.688  -3.312  0.00  0.00    +0.094 C 
BRANCH   5   9
ATOM      9  C   PRO A   3      -7.653  25.140  -2.886  0.00  0.00    +0.241 C 
ATOM     10  O   PRO A   3      -8.614  24.639  -2.316  0.00  0.00    -0.273 OA
ATOM     11  N   ARG A   4      -7.184  24.696  -4.049  0.00  0.00    -0.298 N 
ATOM     12  H   ARG A   4      -6.373  25.180  -4.485  0.00  0.00    +0.150 HD
BRANCH  11  13
ATOM     13  CA  ARG A   4      -7.780  23.538  -4.737  0.00  0.00    +0.137 C 
BRANCH  13  14
ATOM     14  C   ARG A   4      -6.959  22.244  -4.603  0.00  0.00    +0.227 C 
ATOM     15  O   ARG A   4      -7.319  21.215  -5.178  0.00  0.00    -0.286 OA
ENDBRANCH  13  14
BRANCH  13  16
ATOM     16  CB  ARG A   4      -8.052  23.864  -6.212  0.00  0.00    +0.031 C 
BRANCH  16  17
ATOM     17  CG  ARG A   4      -8.978  25.067  -6.418  0.00  0.00    +0.045 C 
BRANCH  17  18
ATOM     18  CD  ARG A   4      -9.507  25.163  -7.848  0.00  0.00    +0.174 C 
BRANCH  18  19
ATOM     19  NE  ARG A   4      -8.500  25.631  -8.800  0.00  0.00    -0.265 N 
ATOM     20  HE  ARG A   4      -8.180  26.617  -8.718  0.00  0.00    +0.259 HD
ATOM     21  CZ  ARG A   4      -7.963  24.886  -9.765  0.00  0.00    +0.342 C 
ATOM     22  NH2 ARG A   4      -8.330  23.619  -9.923  0.00  0.00    -0.292 N 
ATOM     23 HH21 ARG A   4      -9.042  23.201  -9.291  0.00  0.00    +0.255 HD
ATOM     24 HH22 ARG A   4      -7.905  23.045 -10.679  0.00  0.00    +0.255 HD
ATOM     25  NH1 ARG A   4      -7.055  25.412 -10.579  0.00  0.00    -0.292 N 
ATOM     26 HH11 ARG A   4      -6.764  26.404 -10.462  0.00  0.00    +0.255 HD
ATOM     27 HH12 ARG A   4      -6.635  24.832 -11.333  0.00  0.00    +0.255 HD
ENDBRANCH  18  19
ENDBRANCH  17  18
ENDBRANCH  16  17
ENDBRANCH  13  16
ENDBRANCH  11  13
ENDBRANCH   5   9
ENDBRANCH   1   2
BRANCH   1  29
ATOM     28  C   ARG A   1      -2.144  27.962  -1.825  0.00  0.00    +0.238 C 
ATOM     29  N   ASN A   2      -2.772  26.846  -1.483  0.00  0.00    -0.297 N 
ATOM     30  H   ASN A   2      -3.017  26.688  -0.485  0.00  0.00    +0.150 HD
ATOM     31  O   ARG A   1      -1.739  28.177  -2.964  0.00  0.00    -0.274 OA
BRANCH  28  32
ATOM     32  CA  ARG A   1      -1.915  28.971  -0.698  0.00  0.00    +0.145 C 
BRANCH  32  33
ATOM     33  N   ARG A   1      -0.861  29.909  -1.056  0.00  0.00    -0.238 NA
ATOM     34  H   ARG A   1      -0.785  30.230  -2.042  0.00  0.00    +0.142 HD
ENDBRANCH  32  33
BRANCH  32  35
ATOM     35  CB  ARG A   1      -3.233  29.708  -0.390  0.00  0.00    +0.030 C 
BRANCH  35  36
ATOM     36  CG  ARG A   1      -3.221  30.614   0.880  0.00  0.00    +0.045 C 
BRANCH  36  37
ATOM     37  CD  ARG A   1      -3.249  29.767   2.162  0.00  0.00    +0.174 C 
BRANCH  37  38
ATOM     38  NE  ARG A   1      -3.190  30.588   3.379  0.00  0.00    -0.265 N 
ATOM     39  CZ  ARG A   1      -2.070  30.888   4.050  0.00  0.00    +0.342 C 
ATOM     40  NH2 ARG A   1      -2.145  31.613   5.160  0.00  0.00    -0.292 N 
ATOM     41 HH21 ARG A   1      -1.280  31.850   5.686  0.00  0.00    +0.255 HD
ATOM     42 HH22 ARG A   1      -3.069  31.944   5.503  0.00  0.00    +0.255 HD
ATOM     43  NH1 ARG A   1      -0.883  30.479   3.630  0.00  0.00    -0.292 N 
ATOM     44 HH11 ARG A   1      -0.028  30.725   4.168  0.00  0.00    +0.255 HD
ATOM     45 HH12 ARG A   1      -0.806  29.912   2.762  0.00  0.00    +0.255 HD
ATOM     46  HE  ARG A   1      -4.086  30.965   3.748  0.00  0.00    +0.259 HD
ENDBRANCH  37  38
ENDBRANCH  36  37
ENDBRANCH  35  36
ENDBRANCH  32  35
ENDBRANCH  28  32
ENDBRANCH   1  29
BRANCH   1  47
ATOM     47  CB  ASN A   2      -2.226  24.598  -2.322  0.00  0.00    +0.114 C 
BRANCH  47  48
ATOM     48  CG  ASN A   2      -2.313  23.643  -3.504  0.00  0.00    +0.222 C 
ATOM     49  ND2 ASN A   2      -1.719  22.460  -3.348  0.00  0.00    -0.329 N 
ATOM     50 HD21 ASN A   2      -1.241  22.232  -2.453  0.00  0.00    +0.145 HD
ATOM     51 HD22 ASN A   2      -1.733  21.765  -4.121  0.00  0.00    +0.145 HD
ATOM     52  OD1 ASN A   2      -2.894  23.966  -4.544  0.00  0.00    -0.275 OA
ENDBRANCH  47  48
ENDBRANCH   1  47
TORSDOF 17
REMARK  Name = ../refined-set-2016/5cp9/5cp9_pocket.pdb
REMARK  91 active torsions:
REMARK  status: ('A' for Active; 'I' for Inactive)
REMARK    1  A    between atoms: _1  and  _3
REMARK    2  A    between atoms: _3  and  _4
REMARK    3  A    between atoms: _3  and  _6
REMARK    4  A    between atoms: _6  and  _7
REMARK    5  A    between atoms: _17  and  _19
REMARK    6  A    between atoms: _19  and  _20
REMARK    7  A    between atoms: _19  and  _22
REMARK    8  A    between atoms: _22  and  _23
REMARK    9  A    between atoms: _28  and  _30
REMARK   10  A    between atoms: _30  and  _31
REMARK   11  A    between atoms: _30  and  _33
REMARK   12  A    between atoms: _33  and  _34
REMARK   13  A    between atoms: _34  and  _35
REMARK   14  A    between atoms: _38  and  _40
REMARK   15  A    between atoms: _40  and  _41
REMARK   16  A    between atoms: _40  and  _43
REMARK   17  A    between atoms: _43  and  _44
REMARK   18  A    between atoms: _49  and  _51
REMARK   19  A    between atoms: _51  and  _52
REMARK   20  A    between atoms: _51  and  _54
REMARK   21  A    between atoms: _54  and  _55
REMARK   22  A    between atoms: _57  and  _59
REMARK   23  A    between atoms: _59  and  _60
REMARK   24  A    between atoms: _59  and  _62
REMARK   25  A    between atoms: _62  and  _63
REMARK   26  A    between atoms: _69  and  _71
REMARK   27  A    between atoms: _71  and  _72
REMARK   28  A    between atoms: _71  and  _74
REMARK   29  A    between atoms: _74  and  _75
REMARK   30  A    between atoms: _80  and  _81
REMARK   31  A    between atoms: _83  and  _85
REMARK   32  A    between atoms: _85  and  _86
REMARK   33  A    between atoms: _85  and  _88
REMARK   34  A    between atoms: _88  and  _89
REMARK   35  A    between atoms: _89  and  _90
REMARK   36  A    between atoms: _90  and  _91
REMARK   37  A    between atoms: _100  and  _102
REMARK   38  A    between atoms: _102  and  _103
REMARK   39  A    between atoms: _102  and  _105
REMARK   40  A    between atoms: _105  and  _106
REMARK   41  A    between atoms: _112  and  _113
REMARK   42  A    between atoms: _118  and  _120
REMARK   43  A    between atoms: _120  and  _121
REMARK   44  A    between atoms: _120  and  _123
REMARK   45  A    between atoms: _123  and  _124
REMARK   46  A    between atoms: _124  and  _125
REMARK   47  A    between atoms: _125  and  _126
REMARK   48  A    between atoms: _135  and  _137
REMARK   49  A    between atoms: _137  and  _138
REMARK   50  A    between atoms: _137  and  _140
REMARK   51  A    between atoms: _140  and  _141
REMARK   52  A    between atoms: _141  and  _142
REMARK   53  A    between atoms: _145  and  _147
REMARK   54  A    between atoms: _147  and  _148
REMARK   55  A    between atoms: _147  and  _150
REMARK   56  A    between atoms: _150  and  _151
REMARK   57  A    between atoms: _151  and  _152
REMARK   58  A    between atoms: _155  and  _157
REMARK   59  A    between atoms: _157  and  _158
REMARK   60  A    between atoms: _160  and  _162
REMARK   61  A    between atoms: _162  and  _163
REMARK   62  A    between atoms: _165  and  _167
REMARK   63  A    between atoms: _167  and  _168
REMARK   64  A    between atoms: _167  and  _170
REMARK   65  A    between atoms: _170  and  _171
REMARK   66  A    between atoms: _181  and  _183
REMARK   67  A    between atoms: _183  and  _184
REMARK   68  A    between atoms: _183  and  _186
REMARK   69  A    between atoms: _188  and  _190
REMARK   70  A    between atoms: _190  and  _191
REMARK   71  A    between atoms: _190  and  _193
REMARK   72  A    between atoms: _193  and  _194
REMARK   73  A    between atoms: _200  and  _202
REMARK   74  A    between atoms: _202  and  _203
REMARK   75  A    between atoms: _202  and  _205
REMARK   76  A    between atoms: _205  and  _206
REMARK   77  A    between atoms: _206  and  _207
REMARK   78  A    between atoms: _207  and  _208
REMARK   79  A    between atoms: _217  and  _219
REMARK   80  A    between atoms: _219  and  _220
REMARK   81  A    between atoms: _219  and  _222
REMARK   82  A    between atoms: _222  and  _223
REMARK   83  A    between atoms: _228  and  _229
REMARK   84  A    between atoms: _231  and  _233
REMARK   85  A    between atoms: _233  and  _234
REMARK   86  A    between atoms: _233  and  _236
REMARK   87  A    between atoms: _236  and  _237
REMARK   88  A    between atoms: _237  and  _238
REMARK   89  A    between atoms: _241  and  _243
REMARK   90  A    between atoms: _243  and  _244
REMARK   91  A    between atoms: _243  and  _246
REMARK                            x       y       z     vdW  Elec       q    Type
REMARK                         _______ _______ _______ _____ _____    ______ ____
ROOT
ATOM      1  CA  GLU A   2      -0.028  18.926  -7.358  0.00  0.00    +0.149 C 
ENDROOT
BRANCH   1   4
ATOM      2  C   GLU A   1      -1.768  20.487  -6.617  0.00  0.00    +0.238 C 
ATOM      3  O   GLU A   1      -1.130  20.851  -5.622  0.00  0.00    -0.274 OA
ATOM      4  N   GLU A   2      -1.270  19.680  -7.548  0.00  0.00    -0.297 N 
ATOM      5  H   GLU A   2      -1.782  19.580  -8.447  0.00  0.00    +0.150 HD
BRANCH   2   6
ATOM      6  CA  GLU A   1      -3.199  20.970  -6.861  0.00  0.00    +0.145 C 
BRANCH   6   7
ATOM      7  N   GLU A   1      -3.855  21.386  -5.629  0.00  0.00    -0.238 NA
ATOM      8  H   GLU A   1      -3.946  22.402  -5.429  0.00  0.00    +0.142 HD
ENDBRANCH   6   7
BRANCH   6   9
ATOM      9  CB  GLU A   1      -3.229  22.108  -7.871  0.00  0.00    +0.038 C 
BRANCH   9  10
ATOM     10  CG  GLU A   1      -4.599  22.749  -7.984  0.00  0.00    +0.116 C 
BRANCH  10  11
ATOM     11  CD  GLU A   1      -4.607  23.928  -8.916  0.00  0.00    +0.365 C 
ATOM     12  OE2 GLU A   1      -4.859  25.060  -8.439  0.00  0.00    -0.246 OA
ATOM     13  OE1 GLU A   1      -4.372  23.720 -10.124  0.00  0.00    -0.246 OA
ENDBRANCH  10  11
ENDBRANCH   9  10
ENDBRANCH   6   9
ENDBRANCH   2   6
ENDBRANCH   1   4
BRANCH   1  14
ATOM     14  C   GLU A   2       1.221  19.766  -7.070  0.00  0.00    +0.241 C 
ATOM     15  O   GLU A   2       2.201  19.255  -6.523  0.00  0.00    -0.273 OA
ATOM     16  N   GLY A   3       1.177  21.050  -7.414  0.00  0.00    -0.295 N 
ATOM     17  H   GLY A   3       0.287  21.451  -7.772  0.00  0.00    +0.150 HD
BRANCH  16  18
ATOM     18  CA  GLY A   3       2.351  21.906  -7.300  0.00  0.00    +0.176 C 
BRANCH  18  19
ATOM     19  C   GLY A   3       2.656  22.470  -5.921  0.00  0.00    +0.243 C 
ATOM     20  N   GLY A   4       1.715  22.364  -4.990  0.00  0.00    -0.296 N 
ATOM     21  H   GLY A   4       0.829  21.866  -5.209  0.00  0.00    +0.150 HD
ATOM     22  O   GLY A   3       3.741  23.004  -5.702  0.00  0.00    -0.273 OA
BRANCH  20  23
ATOM     23  CA  GLY A   4       1.911  22.940  -3.658  0.00  0.00    +0.163 C 
BRANCH  23  24
ATOM     24  C   GLY A   4       1.424  24.378  -3.646  0.00  0.00    +0.229 C 
ATOM     25  O   GLY A   4       0.882  24.852  -4.659  0.00  0.00    -0.286 OA
ENDBRANCH  23  24
ENDBRANCH  20  23
ENDBRANCH  18  19
ENDBRANCH  16  18
ENDBRANCH   1  14
BRANCH   1  26
ATOM     26  CB  GLU A   2       0.213  18.001  -8.553  0.00  0.00    +0.041 C 
BRANCH  26  27
ATOM     27  CG  GLU A   2      -0.750  16.826  -8.615  0.00  0.00    +0.116 C 
BRANCH  27  28
ATOM     28  CD  GLU A   2      -0.300  15.766  -9.601  0.00  0.00    +0.365 C 
ATOM     29  OE2 GLU A   2       0.454  14.858  -9.187  0.00  0.00    -0.246 OA
ATOM     30  OE1 GLU A   2      -0.683  15.855 -10.790  0.00  0.00    -0.246 OA
ENDBRANCH  27  28
ENDBRANCH  26  27
ENDBRANCH   1  26
TORSDOF 14
REMARK  Name = ../refined-set-2016/5cp9/5cp9_pocket.pdb
REMARK  91 active torsions:
REMARK  status: ('A' for Active; 'I' for Inactive)
REMARK    1  A    between atoms: _1  and  _3
REMARK    2  A    between atoms: _3  and  _4
REMARK    3  A    between atoms: _3  and  _6
REMARK    4  A    between atoms: _6  and  _7
REMARK    5  A    between atoms: _17  and  _19
REMARK    6  A    between atoms: _19  and  _20
REMARK    7  A    between atoms: _19  and  _22
REMARK    8  A    between atoms: _22  and  _23
REMARK    9  A    between atoms: _28  and  _30
REMARK   10  A    between atoms: _30  and  _31
REMARK   11  A    between atoms: _30  and  _33
REMARK   12  A    between atoms: _33  and  _34
REMARK   13  A    between atoms: _34  and  _35
REMARK   14  A    between atoms: _38  and  _40
REMARK   15  A    between atoms: _40  and  _41
REMARK   16  A    between atoms: _40  and  _43
REMARK   17  A    between atoms: _43  and  _44
REMARK   18  A    between atoms: _49  and  _51
REMARK   19  A    between atoms: _51  and  _52
REMARK   20  A    between atoms: _51  and  _54
REMARK   21  A    between atoms: _54  and  _55
REMARK   22  A    between atoms: _57  and  _59
REMARK   23  A    between atoms: _59  and  _60
REMARK   24  A    between atoms: _59  and  _62
REMARK   25  A    between atoms: _62  and  _63
REMARK   26  A    between atoms: _69  and  _71
REMARK   27  A    between atoms: _71  and  _72
REMARK   28  A    between atoms: _71  and  _74
REMARK   29  A    between atoms: _74  and  _75
REMARK   30  A    between atoms: _80  and  _81
REMARK   31  A    between atoms: _83  and  _85
REMARK   32  A    between atoms: _85  and  _86
REMARK   33  A    between atoms: _85  and  _88
REMARK   34  A    between atoms: _88  and  _89
REMARK   35  A    between atoms: _89  and  _90
REMARK   36  A    between atoms: _90  and  _91
REMARK   37  A    between atoms: _100  and  _102
REMARK   38  A    between atoms: _102  and  _103
REMARK   39  A    between atoms: _102  and  _105
REMARK   40  A    between atoms: _105  and  _106
REMARK   41  A    between atoms: _112  and  _113
REMARK   42  A    between atoms: _118  and  _120
REMARK   43  A    between atoms: _120  and  _121
REMARK   44  A    between atoms: _120  and  _123
REMARK   45  A    between atoms: _123  and  _124
REMARK   46  A    between atoms: _124  and  _125
REMARK   47  A    between atoms: _125  and  _126
REMARK   48  A    between atoms: _135  and  _137
REMARK   49  A    between atoms: _137  and  _138
REMARK   50  A    between atoms: _137  and  _140
REMARK   51  A    between atoms: _140  and  _141
REMARK   52  A    between atoms: _141  and  _142
REMARK   53  A    between atoms: _145  and  _147
REMARK   54  A    between atoms: _147  and  _148
REMARK   55  A    between atoms: _147  and  _150
REMARK   56  A    between atoms: _150  and  _151
REMARK   57  A    between atoms: _151  and  _152
REMARK   58  A    between atoms: _155  and  _157
REMARK   59  A    between atoms: _157  and  _158
REMARK   60  A    between atoms: _160  and  _162
REMARK   61  A    between atoms: _162  and  _163
REMARK   62  A    between atoms: _165  and  _167
REMARK   63  A    between atoms: _167  and  _168
REMARK   64  A    between atoms: _167  and  _170
REMARK   65  A    between atoms: _170  and  _171
REMARK   66  A    between atoms: _181  and  _183
REMARK   67  A    between atoms: _183  and  _184
REMARK   68  A    between atoms: _183  and  _186
REMARK   69  A    between atoms: _188  and  _190
REMARK   70  A    between atoms: _190  and  _191
REMARK   71  A    between atoms: _190  and  _193
REMARK   72  A    between atoms: _193  and  _194
REMARK   73  A    between atoms: _200  and  _202
REMARK   74  A    between atoms: _202  and  _203
REMARK   75  A    between atoms: _202  and  _205
REMARK   76  A    between atoms: _205  and  _206
REMARK   77  A    between atoms: _206  and  _207
REMARK   78  A    between atoms: _207  and  _208
REMARK   79  A    between atoms: _217  and  _219
REMARK   80  A    between atoms: _219  and  _220
REMARK   81  A    between atoms: _219  and  _222
REMARK   82  A    between atoms: _222  and  _223
REMARK   83  A    between atoms: _228  and  _229
REMARK   84  A    between atoms: _231  and  _233
REMARK   85  A    between atoms: _233  and  _234
REMARK   86  A    between atoms: _233  and  _236
REMARK   87  A    between atoms: _236  and  _237
REMARK   88  A    between atoms: _237  and  _238
REMARK   89  A    between atoms: _241  and  _243
REMARK   90  A    between atoms: _243  and  _244
REMARK   91  A    between atoms: _243  and  _246
REMARK                            x       y       z     vdW  Elec       q    Type
REMARK                         _______ _______ _______ _____ _____    ______ ____
ROOT
ATOM      1  C   TRP A   1       0.559  30.521  -4.770  0.00  0.00    +0.239 C 
ATOM      2  O   TRP A   1      -0.182  30.680  -3.798  0.00  0.00    -0.274 OA
ATOM      3  N   CYS A   2       0.807  31.484  -5.647  0.00  0.00    -0.296 N 
ATOM      4  H   CYS A   2       1.549  31.357  -6.365  0.00  0.00    +0.150 HD
ENDROOT
BRANCH   1   5
ATOM      5  CA  TRP A   1       1.261  29.192  -5.002  0.00  0.00    +0.149 C 
BRANCH   5   6
ATOM      6  N   TRP A   1       0.927  28.329  -3.875  0.00  0.00    -0.238 NA
ATOM      7  H   TRP A   1       0.022  28.479  -3.386  0.00  0.00    +0.142 HD
ENDBRANCH   5   6
BRANCH   5   8
ATOM      8  CB  TRP A   1       0.798  28.560  -6.334  0.00  0.00    +0.054 C 
BRANCH   8   9
ATOM      9  CG  TRP A   1      -0.679  28.319  -6.374  0.00  0.00    -0.002 A 
ATOM     10  CD1 TRP A   1      -1.344  27.229  -5.893  0.00  0.00    +0.068 A 
ATOM     11  NE1 TRP A   1      -2.696  27.383  -6.071  0.00  0.00    -0.352 N 
ATOM     12  HE1 TRP A   1      -3.424  26.698  -5.785  0.00  0.00    +0.166 HD
ATOM     13  CE2 TRP A   1      -2.933  28.586  -6.687  0.00  0.00    +0.056 A 
ATOM     14  CZ2 TRP A   1      -4.143  29.178  -7.089  0.00  0.00    +0.017 A 
ATOM     15  CH2 TRP A   1      -4.079  30.417  -7.684  0.00  0.00    +0.001 A 
ATOM     16  CZ3 TRP A   1      -2.855  31.050  -7.905  0.00  0.00    +0.000 A 
ATOM     17  CE3 TRP A   1      -1.652  30.462  -7.512  0.00  0.00    +0.001 A 
ATOM     18  CD2 TRP A   1      -1.686  29.207  -6.889  0.00  0.00    +0.013 A 
ENDBRANCH   8   9
ENDBRANCH   5   8
ENDBRANCH   1   5
BRANCH   3  19
ATOM     19  CA  CYS A   2       0.042  32.713  -5.602  0.00  0.00    +0.160 C 
BRANCH  19  20
ATOM     20  C   CYS A   2       0.047  33.381  -6.973  0.00  0.00    +0.242 C 
ATOM     21  N   PHE A   3      -0.957  34.216  -7.205  0.00  0.00    -0.298 N 
ATOM     22  H   PHE A   3      -1.821  34.171  -6.627  0.00  0.00    +0.150 HD
ATOM     23  O   CYS A   2       0.946  33.162  -7.796  0.00  0.00    -0.273 OA
BRANCH  21  24
ATOM     24  CA  PHE A   3      -0.840  35.199  -8.278  0.00  0.00    +0.141 C 
BRANCH  24  25
ATOM     25  C   PHE A   3       0.286  36.148  -7.887  0.00  0.00    +0.227 C 
ATOM     26  O   PHE A   3       0.492  36.440  -6.698  0.00  0.00    -0.286 OA
ENDBRANCH  24  25
BRANCH  24  27
ATOM     27  CB  PHE A   3      -2.176  35.907  -8.516  0.00  0.00    +0.054 C 
BRANCH  27  28
ATOM     28  CG  PHE A   3      -3.265  34.974  -8.968  0.00  0.00    -0.020 A 
ATOM     29  CD2 PHE A   3      -4.282  34.583  -8.105  0.00  0.00    -0.004 A 
ATOM     30  CE2 PHE A   3      -5.277  33.689  -8.520  0.00  0.00    -0.000 A 
ATOM     31  CZ  PHE A   3      -5.252  33.188  -9.818  0.00  0.00    -0.000 A 
ATOM     32  CE1 PHE A   3      -4.238  33.581 -10.691  0.00  0.00    -0.000 A 
ATOM     33  CD1 PHE A   3      -3.253  34.456 -10.267  0.00  0.00    -0.004 A 
ENDBRANCH  27  28
ENDBRANCH  24  27
ENDBRANCH  21  24
ENDBRANCH  19  20
BRANCH  19  34
ATOM     34  CB  CYS A   2       0.638  33.673  -4.558  0.00  0.00    +0.098 C 
ATOM     35  SG  CYS A   2       2.327  34.158  -4.911  0.00  0.00    -0.080 S 
ENDBRANCH  19  34
ENDBRANCH   3  19
TORSDOF 11
REMARK  Name = ../refined-set-2016/5cp9/5cp9_pocket.pdb
REMARK  91 active torsions:
REMARK  status: ('A' for Active; 'I' for Inactive)
REMARK    1  A    between atoms: _1  and  _3
REMARK    2  A    between atoms: _3  and  _4
REMARK    3  A    between atoms: _3  and  _6
REMARK    4  A    between atoms: _6  and  _7
REMARK    5  A    between atoms: _17  and  _19
REMARK    6  A    between atoms: _19  and  _20
REMARK    7  A    between atoms: _19  and  _22
REMARK    8  A    between atoms: _22  and  _23
REMARK    9  A    between atoms: _28  and  _30
REMARK   10  A    between atoms: _30  and  _31
REMARK   11  A    between atoms: _30  and  _33
REMARK   12  A    between atoms: _33  and  _34
REMARK   13  A    between atoms: _34  and  _35
REMARK   14  A    between atoms: _38  and  _40
REMARK   15  A    between atoms: _40  and  _41
REMARK   16  A    between atoms: _40  and  _43
REMARK   17  A    between atoms: _43  and  _44
REMARK   18  A    between atoms: _49  and  _51
REMARK   19  A    between atoms: _51  and  _52
REMARK   20  A    between atoms: _51  and  _54
REMARK   21  A    between atoms: _54  and  _55
REMARK   22  A    between atoms: _57  and  _59
REMARK   23  A    between atoms: _59  and  _60
REMARK   24  A    between atoms: _59  and  _62
REMARK   25  A    between atoms: _62  and  _63
REMARK   26  A    between atoms: _69  and  _71
REMARK   27  A    between atoms: _71  and  _72
REMARK   28  A    between atoms: _71  and  _74
REMARK   29  A    between atoms: _74  and  _75
REMARK   30  A    between atoms: _80  and  _81
REMARK   31  A    between atoms: _83  and  _85
REMARK   32  A    between atoms: _85  and  _86
REMARK   33  A    between atoms: _85  and  _88
REMARK   34  A    between atoms: _88  and  _89
REMARK   35  A    between atoms: _89  and  _90
REMARK   36  A    between atoms: _90  and  _91
REMARK   37  A    between atoms: _100  and  _102
REMARK   38  A    between atoms: _102  and  _103
REMARK   39  A    between atoms: _102  and  _105
REMARK   40  A    between atoms: _105  and  _106
REMARK   41  A    between atoms: _112  and  _113
REMARK   42  A    between atoms: _118  and  _120
REMARK   43  A    between atoms: _120  and  _121
REMARK   44  A    between atoms: _120  and  _123
REMARK   45  A    between atoms: _123  and  _124
REMARK   46  A    between atoms: _124  and  _125
REMARK   47  A    between atoms: _125  and  _126
REMARK   48  A    between atoms: _135  and  _137
REMARK   49  A    between atoms: _137  and  _138
REMARK   50  A    between atoms: _137  and  _140
REMARK   51  A    between atoms: _140  and  _141
REMARK   52  A    between atoms: _141  and  _142
REMARK   53  A    between atoms: _145  and  _147
REMARK   54  A    between atoms: _147  and  _148
REMARK   55  A    between atoms: _147  and  _150
REMARK   56  A    between atoms: _150  and  _151
REMARK   57  A    between atoms: _151  and  _152
REMARK   58  A    between atoms: _155  and  _157
REMARK   59  A    between atoms: _157  and  _158
REMARK   60  A    between atoms: _160  and  _162
REMARK   61  A    between atoms: _162  and  _163
REMARK   62  A    between atoms: _165  and  _167
REMARK   63  A    between atoms: _167  and  _168
REMARK   64  A    between atoms: _167  and  _170
REMARK   65  A    between atoms: _170  and  _171
REMARK   66  A    between atoms: _181  and  _183
REMARK   67  A    between atoms: _183  and  _184
REMARK   68  A    between atoms: _183  and  _186
REMARK   69  A    between atoms: _188  and  _190
REMARK   70  A    between atoms: _190  and  _191
REMARK   71  A    between atoms: _190  and  _193
REMARK   72  A    between atoms: _193  and  _194
REMARK   73  A    between atoms: _200  and  _202
REMARK   74  A    between atoms: _202  and  _203
REMARK   75  A    between atoms: _202  and  _205
REMARK   76  A    between atoms: _205  and  _206
REMARK   77  A    between atoms: _206  and  _207
REMARK   78  A    between atoms: _207  and  _208
REMARK   79  A    between atoms: _217  and  _219
REMARK   80  A    between atoms: _219  and  _220
REMARK   81  A    between atoms: _219  and  _222
REMARK   82  A    between atoms: _222  and  _223
REMARK   83  A    between atoms: _228  and  _229
REMARK   84  A    between atoms: _231  and  _233
REMARK   85  A    between atoms: _233  and  _234
REMARK   86  A    between atoms: _233  and  _236
REMARK   87  A    between atoms: _236  and  _237
REMARK   88  A    between atoms: _237  and  _238
REMARK   89  A    between atoms: _241  and  _243
REMARK   90  A    between atoms: _243  and  _244
REMARK   91  A    between atoms: _243  and  _246
REMARK                            x       y       z     vdW  Elec       q    Type
REMARK                         _______ _______ _______ _____ _____    ______ ____
ROOT
ATOM      1  CA  TYR A   2       1.156  32.840 -11.043  0.00  0.00    +0.153 C 
ENDROOT
BRANCH   1   4
ATOM      2  C   ARG A   1       0.380  34.692 -12.396  0.00  0.00    +0.238 C 
ATOM      3  O   ARG A   1      -0.150  35.222 -11.412  0.00  0.00    -0.274 OA
ATOM      4  N   TYR A   2       1.014  33.525 -12.324  0.00  0.00    -0.297 N 
ATOM      5  H   TYR A   2       1.411  33.098 -13.185  0.00  0.00    +0.150 HD
BRANCH   2   6
ATOM      6  CA  ARG A   1       0.345  35.381 -13.774  0.00  0.00    +0.145 C 
BRANCH   6   7
ATOM      7  N   ARG A   1       1.672  35.493 -14.383  0.00  0.00    -0.238 NA
ATOM      8  H   ARG A   1       1.835  35.089 -15.327  0.00  0.00    +0.142 HD
ENDBRANCH   6   7
BRANCH   6   9
ATOM      9  CB  ARG A   1      -0.634  34.688 -14.720  0.00  0.00    +0.030 C 
BRANCH   9  10
ATOM     10  CG  ARG A   1      -1.986  34.382 -14.107  0.00  0.00    +0.045 C 
BRANCH  10  11
ATOM     11  CD  ARG A   1      -3.050  34.145 -15.157  0.00  0.00    +0.174 C 
BRANCH  11  12
ATOM     12  NE  ARG A   1      -4.322  33.793 -14.537  0.00  0.00    -0.265 N 
ATOM     13  CZ  ARG A   1      -5.280  34.655 -14.206  0.00  0.00    +0.342 C 
ATOM     14  NH2 ARG A   1      -6.388  34.207 -13.633  0.00  0.00    -0.292 N 
ATOM     15 HH21 ARG A   1      -7.143  34.872 -13.370  0.00  0.00    +0.255 HD
ATOM     16 HH22 ARG A   1      -6.502  33.190 -13.446  0.00  0.00    +0.255 HD
ATOM     17  NH1 ARG A   1      -5.153  35.954 -14.453  0.00  0.00    -0.292 N 
ATOM     18 HH11 ARG A   1      -5.914  36.611 -14.186  0.00  0.00    +0.255 HD
ATOM     19 HH12 ARG A   1      -4.293  36.314 -14.913  0.00  0.00    +0.255 HD
ATOM     20  HE  ARG A   1      -4.494  32.787 -14.337  0.00  0.00    +0.259 HD
ENDBRANCH  11  12
ENDBRANCH  10  11
ENDBRANCH   9  10
ENDBRANCH   6   9
ENDBRANCH   2   6
ENDBRANCH   1   4
BRANCH   1  21
ATOM     21  C   TYR A   2       2.454  32.054 -11.007  0.00  0.00    +0.241 C 
ATOM     22  N   GLU A   3       2.909  31.745  -9.799  0.00  0.00    -0.297 N 
ATOM     23  H   GLU A   3       2.430  32.138  -8.964  0.00  0.00    +0.150 HD
ATOM     24  O   TYR A   2       3.040  31.743 -12.056  0.00  0.00    -0.273 OA
BRANCH  22  25
ATOM     25  CA  GLU A   3       4.063  30.869  -9.607  0.00  0.00    +0.149 C 
BRANCH  25  26
ATOM     26  C   GLU A   3       3.919  30.138  -8.273  0.00  0.00    +0.241 C 
ATOM     27  O   GLU A   3       3.363  30.686  -7.317  0.00  0.00    -0.273 OA
ATOM     28  N   VAL A   4       4.418  28.901  -8.215  0.00  0.00    -0.298 N 
ATOM     29  H   VAL A   4       4.747  28.446  -9.091  0.00  0.00    +0.150 HD
BRANCH  28  30
ATOM     30  CA  VAL A   4       4.515  28.165  -6.946  0.00  0.00    +0.137 C 
BRANCH  30  31
ATOM     31  CB  VAL A   4       5.004  26.695  -7.147  0.00  0.00    +0.026 C 
ATOM     32  CG2 VAL A   4       6.409  26.647  -7.788  0.00  0.00    +0.002 C 
ATOM     33  CG1 VAL A   4       3.987  25.906  -7.958  0.00  0.00    +0.002 C 
ENDBRANCH  30  31
BRANCH  30  34
ATOM     34  C   VAL A   4       5.471  28.839  -5.976  0.00  0.00    +0.227 C 
ATOM     35  O   VAL A   4       6.421  29.519  -6.384  0.00  0.00    -0.286 OA
ENDBRANCH  30  34
ENDBRANCH  28  30
ENDBRANCH  25  26
BRANCH  25  36
ATOM     36  CB  GLU A   3       5.368  31.675  -9.633  0.00  0.00    +0.041 C 
BRANCH  36  37
ATOM     37  CG  GLU A   3       6.614  30.821  -9.858  0.00  0.00    +0.116 C 
BRANCH  37  38
ATOM     38  CD  GLU A   3       7.941  31.561  -9.740  0.00  0.00    +0.365 C 
ATOM     39  OE2 GLU A   3       7.985  32.752  -9.358  0.00  0.00    -0.246 OA
ATOM     40  OE1 GLU A   3       8.975  30.926 -10.044  0.00  0.00    -0.246 OA
ENDBRANCH  37  38
ENDBRANCH  36  37
ENDBRANCH  25  36
ENDBRANCH  22  25
ENDBRANCH   1  21
BRANCH   1  41
ATOM     41  CB  TYR A   2      -0.051  31.929 -10.770  0.00  0.00    +0.055 C 
BRANCH  41  42
ATOM     42  CG  TYR A   2      -0.090  30.704 -11.659  0.00  0.00    -0.020 A 
ATOM     43  CD2 TYR A   2       0.581  29.533 -11.295  0.00  0.00    -0.001 A 
ATOM     44  CE2 TYR A   2       0.565  28.409 -12.116  0.00  0.00    +0.036 A 
ATOM     45  CZ  TYR A   2      -0.139  28.449 -13.309  0.00  0.00    +0.134 A 
ATOM     46  CE1 TYR A   2      -0.815  29.596 -13.695  0.00  0.00    +0.036 A 
ATOM     47  CD1 TYR A   2      -0.788  30.719 -12.869  0.00  0.00    -0.001 A 
BRANCH  45  48
ATOM     48  OH  TYR A   2      -0.168  27.336 -14.118  0.00  0.00    -0.506 OA
ATOM     49  HH  TYR A   2      -0.709  27.529 -14.924  0.00  0.00    +0.292 HD
ENDBRANCH  45  48
ENDBRANCH  41  42
ENDBRANCH   1  41
TORSDOF 19
REMARK  Name = ../refined-set-2016/5cp9/5cp9_pocket.pdb
REMARK  91 active torsions:
REMARK  status: ('A' for Active; 'I' for Inactive)
REMARK    1  A    between atoms: _1  and  _3
REMARK    2  A    between atoms: _3  and  _4
REMARK    3  A    between atoms: _3  and  _6
REMARK    4  A    between atoms: _6  and  _7
REMARK    5  A    between atoms: _17  and  _19
REMARK    6  A    between atoms: _19  and  _20
REMARK    7  A    between atoms: _19  and  _22
REMARK    8  A    between atoms: _22  and  _23
REMARK    9  A    between atoms: _28  and  _30
REMARK   10  A    between atoms: _30  and  _31
REMARK   11  A    between atoms: _30  and  _33
REMARK   12  A    between atoms: _33  and  _34
REMARK   13  A    between atoms: _34  and  _35
REMARK   14  A    between atoms: _38  and  _40
REMARK   15  A    between atoms: _40  and  _41
REMARK   16  A    between atoms: _40  and  _43
REMARK   17  A    between atoms: _43  and  _44
REMARK   18  A    between atoms: _49  and  _51
REMARK   19  A    between atoms: _51  and  _52
REMARK   20  A    between atoms: _51  and  _54
REMARK   21  A    between atoms: _54  and  _55
REMARK   22  A    between atoms: _57  and  _59
REMARK   23  A    between atoms: _59  and  _60
REMARK   24  A    between atoms: _59  and  _62
REMARK   25  A    between atoms: _62  and  _63
REMARK   26  A    between atoms: _69  and  _71
REMARK   27  A    between atoms: _71  and  _72
REMARK   28  A    between atoms: _71  and  _74
REMARK   29  A    between atoms: _74  and  _75
REMARK   30  A    between atoms: _80  and  _81
REMARK   31  A    between atoms: _83  and  _85
REMARK   32  A    between atoms: _85  and  _86
REMARK   33  A    between atoms: _85  and  _88
REMARK   34  A    between atoms: _88  and  _89
REMARK   35  A    between atoms: _89  and  _90
REMARK   36  A    between atoms: _90  and  _91
REMARK   37  A    between atoms: _100  and  _102
REMARK   38  A    between atoms: _102  and  _103
REMARK   39  A    between atoms: _102  and  _105
REMARK   40  A    between atoms: _105  and  _106
REMARK   41  A    between atoms: _112  and  _113
REMARK   42  A    between atoms: _118  and  _120
REMARK   43  A    between atoms: _120  and  _121
REMARK   44  A    between atoms: _120  and  _123
REMARK   45  A    between atoms: _123  and  _124
REMARK   46  A    between atoms: _124  and  _125
REMARK   47  A    between atoms: _125  and  _126
REMARK   48  A    between atoms: _135  and  _137
REMARK   49  A    between atoms: _137  and  _138
REMARK   50  A    between atoms: _137  and  _140
REMARK   51  A    between atoms: _140  and  _141
REMARK   52  A    between atoms: _141  and  _142
REMARK   53  A    between atoms: _145  and  _147
REMARK   54  A    between atoms: _147  and  _148
REMARK   55  A    between atoms: _147  and  _150
REMARK   56  A    between atoms: _150  and  _151
REMARK   57  A    between atoms: _151  and  _152
REMARK   58  A    between atoms: _155  and  _157
REMARK   59  A    between atoms: _157  and  _158
REMARK   60  A    between atoms: _160  and  _162
REMARK   61  A    between atoms: _162  and  _163
REMARK   62  A    between atoms: _165  and  _167
REMARK   63  A    between atoms: _167  and  _168
REMARK   64  A    between atoms: _167  and  _170
REMARK   65  A    between atoms: _170  and  _171
REMARK   66  A    between atoms: _181  and  _183
REMARK   67  A    between atoms: _183  and  _184
REMARK   68  A    between atoms: _183  and  _186
REMARK   69  A    between atoms: _188  and  _190
REMARK   70  A    between atoms: _190  and  _191
REMARK   71  A    between atoms: _190  and  _193
REMARK   72  A    between atoms: _193  and  _194
REMARK   73  A    between atoms: _200  and  _202
REMARK   74  A    between atoms: _202  and  _203
REMARK   75  A    between atoms: _202  and  _205
REMARK   76  A    between atoms: _205  and  _206
REMARK   77  A    between atoms: _206  and  _207
REMARK   78  A    between atoms: _207  and  _208
REMARK   79  A    between atoms: _217  and  _219
REMARK   80  A    between atoms: _219  and  _220
REMARK   81  A    between atoms: _219  and  _222
REMARK   82  A    between atoms: _222  and  _223
REMARK   83  A    between atoms: _228  and  _229
REMARK   84  A    between atoms: _231  and  _233
REMARK   85  A    between atoms: _233  and  _234
REMARK   86  A    between atoms: _233  and  _236
REMARK   87  A    between atoms: _236  and  _237
REMARK   88  A    between atoms: _237  and  _238
REMARK   89  A    between atoms: _241  and  _243
REMARK   90  A    between atoms: _243  and  _244
REMARK   91  A    between atoms: _243  and  _246
REMARK                            x       y       z     vdW  Elec       q    Type
REMARK                         _______ _______ _______ _____ _____    ______ ____
ROOT
ATOM      1  O   HOH     1      -9.015  32.457 -11.791  0.00  0.00    +0.000 OA
ENDROOT
TORSDOF 0
REMARK  Name = ../refined-set-2016/5cp9/5cp9_pocket.pdb
REMARK  91 active torsions:
REMARK  status: ('A' for Active; 'I' for Inactive)
REMARK    1  A    between atoms: _1  and  _3
REMARK    2  A    between atoms: _3  and  _4
REMARK    3  A    between atoms: _3  and  _6
REMARK    4  A    between atoms: _6  and  _7
REMARK    5  A    between atoms: _17  and  _19
REMARK    6  A    between atoms: _19  and  _20
REMARK    7  A    between atoms: _19  and  _22
REMARK    8  A    between atoms: _22  and  _23
REMARK    9  A    between atoms: _28  and  _30
REMARK   10  A    between atoms: _30  and  _31
REMARK   11  A    between atoms: _30  and  _33
REMARK   12  A    between atoms: _33  and  _34
REMARK   13  A    between atoms: _34  and  _35
REMARK   14  A    between atoms: _38  and  _40
REMARK   15  A    between atoms: _40  and  _41
REMARK   16  A    between atoms: _40  and  _43
REMARK   17  A    between atoms: _43  and  _44
REMARK   18  A    between atoms: _49  and  _51
REMARK   19  A    between atoms: _51  and  _52
REMARK   20  A    between atoms: _51  and  _54
REMARK   21  A    between atoms: _54  and  _55
REMARK   22  A    between atoms: _57  and  _59
REMARK   23  A    between atoms: _59  and  _60
REMARK   24  A    between atoms: _59  and  _62
REMARK   25  A    between atoms: _62  and  _63
REMARK   26  A    between atoms: _69  and  _71
REMARK   27  A    between atoms: _71  and  _72
REMARK   28  A    between atoms: _71  and  _74
REMARK   29  A    between atoms: _74  and  _75
REMARK   30  A    between atoms: _80  and  _81
REMARK   31  A    between atoms: _83  and  _85
REMARK   32  A    between atoms: _85  and  _86
REMARK   33  A    between atoms: _85  and  _88
REMARK   34  A    between atoms: _88  and  _89
REMARK   35  A    between atoms: _89  and  _90
REMARK   36  A    between atoms: _90  and  _91
REMARK   37  A    between atoms: _100  and  _102
REMARK   38  A    between atoms: _102  and  _103
REMARK   39  A    between atoms: _102  and  _105
REMARK   40  A    between atoms: _105  and  _106
REMARK   41  A    between atoms: _112  and  _113
REMARK   42  A    between atoms: _118  and  _120
REMARK   43  A    between atoms: _120  and  _121
REMARK   44  A    between atoms: _120  and  _123
REMARK   45  A    between atoms: _123  and  _124
REMARK   46  A    between atoms: _124  and  _125
REMARK   47  A    between atoms: _125  and  _126
REMARK   48  A    between atoms: _135  and  _137
REMARK   49  A    between atoms: _137  and  _138
REMARK   50  A    between atoms: _137  and  _140
REMARK   51  A    between atoms: _140  and  _141
REMARK   52  A    between atoms: _141  and  _142
REMARK   53  A    between atoms: _145  and  _147
REMARK   54  A    between atoms: _147  and  _148
REMARK   55  A    between atoms: _147  and  _150
REMARK   56  A    between atoms: _150  and  _151
REMARK   57  A    between atoms: _151  and  _152
REMARK   58  A    between atoms: _155  and  _157
REMARK   59  A    between atoms: _157  and  _158
REMARK   60  A    between atoms: _160  and  _162
REMARK   61  A    between atoms: _162  and  _163
REMARK   62  A    between atoms: _165  and  _167
REMARK   63  A    between atoms: _167  and  _168
REMARK   64  A    between atoms: _167  and  _170
REMARK   65  A    between atoms: _170  and  _171
REMARK   66  A    between atoms: _181  and  _183
REMARK   67  A    between atoms: _183  and  _184
REMARK   68  A    between atoms: _183  and  _186
REMARK   69  A    between atoms: _188  and  _190
REMARK   70  A    between atoms: _190  and  _191
REMARK   71  A    between atoms: _190  and  _193
REMARK   72  A    between atoms: _193  and  _194
REMARK   73  A    between atoms: _200  and  _202
REMARK   74  A    between atoms: _202  and  _203
REMARK   75  A    between atoms: _202  and  _205
REMARK   76  A    between atoms: _205  and  _206
REMARK   77  A    between atoms: _206  and  _207
REMARK   78  A    between atoms: _207  and  _208
REMARK   79  A    between atoms: _217  and  _219
REMARK   80  A    between atoms: _219  and  _220
REMARK   81  A    between atoms: _219  and  _222
REMARK   82  A    between atoms: _222  and  _223
REMARK   83  A    between atoms: _228  and  _229
REMARK   84  A    between atoms: _231  and  _233
REMARK   85  A    between atoms: _233  and  _234
REMARK   86  A    between atoms: _233  and  _236
REMARK   87  A    between atoms: _236  and  _237
REMARK   88  A    between atoms: _237  and  _238
REMARK   89  A    between atoms: _241  and  _243
REMARK   90  A    between atoms: _243  and  _244
REMARK   91  A    between atoms: _243  and  _246
REMARK                            x       y       z     vdW  Elec       q    Type
REMARK                         _______ _______ _______ _____ _____    ______ ____
ROOT
ATOM      1  O   HOH     1      -4.971  25.463  -5.743  0.00  0.00    +0.000 OA
ENDROOT
TORSDOF 0
REMARK  Name = ../refined-set-2016/5cp9/5cp9_pocket.pdb
REMARK  91 active torsions:
REMARK  status: ('A' for Active; 'I' for Inactive)
REMARK    1  A    between atoms: _1  and  _3
REMARK    2  A    between atoms: _3  and  _4
REMARK    3  A    between atoms: _3  and  _6
REMARK    4  A    between atoms: _6  and  _7
REMARK    5  A    between atoms: _17  and  _19
REMARK    6  A    between atoms: _19  and  _20
REMARK    7  A    between atoms: _19  and  _22
REMARK    8  A    between atoms: _22  and  _23
REMARK    9  A    between atoms: _28  and  _30
REMARK   10  A    between atoms: _30  and  _31
REMARK   11  A    between atoms: _30  and  _33
REMARK   12  A    between atoms: _33  and  _34
REMARK   13  A    between atoms: _34  and  _35
REMARK   14  A    between atoms: _38  and  _40
REMARK   15  A    between atoms: _40  and  _41
REMARK   16  A    between atoms: _40  and  _43
REMARK   17  A    between atoms: _43  and  _44
REMARK   18  A    between atoms: _49  and  _51
REMARK   19  A    between atoms: _51  and  _52
REMARK   20  A    between atoms: _51  and  _54
REMARK   21  A    between atoms: _54  and  _55
REMARK   22  A    between atoms: _57  and  _59
REMARK   23  A    between atoms: _59  and  _60
REMARK   24  A    between atoms: _59  and  _62
REMARK   25  A    between atoms: _62  and  _63
REMARK   26  A    between atoms: _69  and  _71
REMARK   27  A    between atoms: _71  and  _72
REMARK   28  A    between atoms: _71  and  _74
REMARK   29  A    between atoms: _74  and  _75
REMARK   30  A    between atoms: _80  and  _81
REMARK   31  A    between atoms: _83  and  _85
REMARK   32  A    between atoms: _85  and  _86
REMARK   33  A    between atoms: _85  and  _88
REMARK   34  A    between atoms: _88  and  _89
REMARK   35  A    between atoms: _89  and  _90
REMARK   36  A    between atoms: _90  and  _91
REMARK   37  A    between atoms: _100  and  _102
REMARK   38  A    between atoms: _102  and  _103
REMARK   39  A    between atoms: _102  and  _105
REMARK   40  A    between atoms: _105  and  _106
REMARK   41  A    between atoms: _112  and  _113
REMARK   42  A    between atoms: _118  and  _120
REMARK   43  A    between atoms: _120  and  _121
REMARK   44  A    between atoms: _120  and  _123
REMARK   45  A    between atoms: _123  and  _124
REMARK   46  A    between atoms: _124  and  _125
REMARK   47  A    between atoms: _125  and  _126
REMARK   48  A    between atoms: _135  and  _137
REMARK   49  A    between atoms: _137  and  _138
REMARK   50  A    between atoms: _137  and  _140
REMARK   51  A    between atoms: _140  and  _141
REMARK   52  A    between atoms: _141  and  _142
REMARK   53  A    between atoms: _145  and  _147
REMARK   54  A    between atoms: _147  and  _148
REMARK   55  A    between atoms: _147  and  _150
REMARK   56  A    between atoms: _150  and  _151
REMARK   57  A    between atoms: _151  and  _152
REMARK   58  A    between atoms: _155  and  _157
REMARK   59  A    between atoms: _157  and  _158
REMARK   60  A    between atoms: _160  and  _162
REMARK   61  A    between atoms: _162  and  _163
REMARK   62  A    between atoms: _165  and  _167
REMARK   63  A    between atoms: _167  and  _168
REMARK   64  A    between atoms: _167  and  _170
REMARK   65  A    between atoms: _170  and  _171
REMARK   66  A    between atoms: _181  and  _183
REMARK   67  A    between atoms: _183  and  _184
REMARK   68  A    between atoms: _183  and  _186
REMARK   69  A    between atoms: _188  and  _190
REMARK   70  A    between atoms: _190  and  _191
REMARK   71  A    between atoms: _190  and  _193
REMARK   72  A    between atoms: _193  and  _194
REMARK   73  A    between atoms: _200  and  _202
REMARK   74  A    between atoms: _202  and  _203
REMARK   75  A    between atoms: _202  and  _205
REMARK   76  A    between atoms: _205  and  _206
REMARK   77  A    between atoms: _206  and  _207
REMARK   78  A    between atoms: _207  and  _208
REMARK   79  A    between atoms: _217  and  _219
REMARK   80  A    between atoms: _219  and  _220
REMARK   81  A    between atoms: _219  and  _222
REMARK   82  A    between atoms: _222  and  _223
REMARK   83  A    between atoms: _228  and  _229
REMARK   84  A    between atoms: _231  and  _233
REMARK   85  A    between atoms: _233  and  _234
REMARK   86  A    between atoms: _233  and  _236
REMARK   87  A    between atoms: _236  and  _237
REMARK   88  A    between atoms: _237  and  _238
REMARK   89  A    between atoms: _241  and  _243
REMARK   90  A    between atoms: _243  and  _244
REMARK   91  A    between atoms: _243  and  _246
REMARK                            x       y       z     vdW  Elec       q    Type
REMARK                         _______ _______ _______ _____ _____    ______ ____
ROOT
ATOM      1  O   HOH     1      -2.401  19.565 -10.041  0.00  0.00    +0.000 OA
ENDROOT
TORSDOF 0
REMARK  Name = ../refined-set-2016/5cp9/5cp9_pocket.pdb
REMARK  91 active torsions:
REMARK  status: ('A' for Active; 'I' for Inactive)
REMARK    1  A    between atoms: _1  and  _3
REMARK    2  A    between atoms: _3  and  _4
REMARK    3  A    between atoms: _3  and  _6
REMARK    4  A    between atoms: _6  and  _7
REMARK    5  A    between atoms: _17  and  _19
REMARK    6  A    between atoms: _19  and  _20
REMARK    7  A    between atoms: _19  and  _22
REMARK    8  A    between atoms: _22  and  _23
REMARK    9  A    between atoms: _28  and  _30
REMARK   10  A    between atoms: _30  and  _31
REMARK   11  A    between atoms: _30  and  _33
REMARK   12  A    between atoms: _33  and  _34
REMARK   13  A    between atoms: _34  and  _35
REMARK   14  A    between atoms: _38  and  _40
REMARK   15  A    between atoms: _40  and  _41
REMARK   16  A    between atoms: _40  and  _43
REMARK   17  A    between atoms: _43  and  _44
REMARK   18  A    between atoms: _49  and  _51
REMARK   19  A    between atoms: _51  and  _52
REMARK   20  A    between atoms: _51  and  _54
REMARK   21  A    between atoms: _54  and  _55
REMARK   22  A    between atoms: _57  and  _59
REMARK   23  A    between atoms: _59  and  _60
REMARK   24  A    between atoms: _59  and  _62
REMARK   25  A    between atoms: _62  and  _63
REMARK   26  A    between atoms: _69  and  _71
REMARK   27  A    between atoms: _71  and  _72
REMARK   28  A    between atoms: _71  and  _74
REMARK   29  A    between atoms: _74  and  _75
REMARK   30  A    between atoms: _80  and  _81
REMARK   31  A    between atoms: _83  and  _85
REMARK   32  A    between atoms: _85  and  _86
REMARK   33  A    between atoms: _85  and  _88
REMARK   34  A    between atoms: _88  and  _89
REMARK   35  A    between atoms: _89  and  _90
REMARK   36  A    between atoms: _90  and  _91
REMARK   37  A    between atoms: _100  and  _102
REMARK   38  A    between atoms: _102  and  _103
REMARK   39  A    between atoms: _102  and  _105
REMARK   40  A    between atoms: _105  and  _106
REMARK   41  A    between atoms: _112  and  _113
REMARK   42  A    between atoms: _118  and  _120
REMARK   43  A    between atoms: _120  and  _121
REMARK   44  A    between atoms: _120  and  _123
REMARK   45  A    between atoms: _123  and  _124
REMARK   46  A    between atoms: _124  and  _125
REMARK   47  A    between atoms: _125  and  _126
REMARK   48  A    between atoms: _135  and  _137
REMARK   49  A    between atoms: _137  and  _138
REMARK   50  A    between atoms: _137  and  _140
REMARK   51  A    between atoms: _140  and  _141
REMARK   52  A    between atoms: _141  and  _142
REMARK   53  A    between atoms: _145  and  _147
REMARK   54  A    between atoms: _147  and  _148
REMARK   55  A    between atoms: _147  and  _150
REMARK   56  A    between atoms: _150  and  _151
REMARK   57  A    between atoms: _151  and  _152
REMARK   58  A    between atoms: _155  and  _157
REMARK   59  A    between atoms: _157  and  _158
REMARK   60  A    between atoms: _160  and  _162
REMARK   61  A    between atoms: _162  and  _163
REMARK   62  A    between atoms: _165  and  _167
REMARK   63  A    between atoms: _167  and  _168
REMARK   64  A    between atoms: _167  and  _170
REMARK   65  A    between atoms: _170  and  _171
REMARK   66  A    between atoms: _181  and  _183
REMARK   67  A    between atoms: _183  and  _184
REMARK   68  A    between atoms: _183  and  _186
REMARK   69  A    between atoms: _188  and  _190
REMARK   70  A    between atoms: _190  and  _191
REMARK   71  A    between atoms: _190  and  _193
REMARK   72  A    between atoms: _193  and  _194
REMARK   73  A    between atoms: _200  and  _202
REMARK   74  A    between atoms: _202  and  _203
REMARK   75  A    between atoms: _202  and  _205
REMARK   76  A    between atoms: _205  and  _206
REMARK   77  A    between atoms: _206  and  _207
REMARK   78  A    between atoms: _207  and  _208
REMARK   79  A    between atoms: _217  and  _219
REMARK   80  A    between atoms: _219  and  _220
REMARK   81  A    between atoms: _219  and  _222
REMARK   82  A    between atoms: _222  and  _223
REMARK   83  A    between atoms: _228  and  _229
REMARK   84  A    between atoms: _231  and  _233
REMARK   85  A    between atoms: _233  and  _234
REMARK   86  A    between atoms: _233  and  _236
REMARK   87  A    between atoms: _236  and  _237
REMARK   88  A    between atoms: _237  and  _238
REMARK   89  A    between atoms: _241  and  _243
REMARK   90  A    between atoms: _243  and  _244
REMARK   91  A    between atoms: _243  and  _246
REMARK                            x       y       z     vdW  Elec       q    Type
REMARK                         _______ _______ _______ _____ _____    ______ ____
ROOT
ATOM      1  O   HOH     1       4.716  29.621 -12.804  0.00  0.00    +0.000 OA
ENDROOT
TORSDOF 0
REMARK  Name = ../refined-set-2016/5cp9/5cp9_pocket.pdb
REMARK  91 active torsions:
REMARK  status: ('A' for Active; 'I' for Inactive)
REMARK    1  A    between atoms: _1  and  _3
REMARK    2  A    between atoms: _3  and  _4
REMARK    3  A    between atoms: _3  and  _6
REMARK    4  A    between atoms: _6  and  _7
REMARK    5  A    between atoms: _17  and  _19
REMARK    6  A    between atoms: _19  and  _20
REMARK    7  A    between atoms: _19  and  _22
REMARK    8  A    between atoms: _22  and  _23
REMARK    9  A    between atoms: _28  and  _30
REMARK   10  A    between atoms: _30  and  _31
REMARK   11  A    between atoms: _30  and  _33
REMARK   12  A    between atoms: _33  and  _34
REMARK   13  A    between atoms: _34  and  _35
REMARK   14  A    between atoms: _38  and  _40
REMARK   15  A    between atoms: _40  and  _41
REMARK   16  A    between atoms: _40  and  _43
REMARK   17  A    between atoms: _43  and  _44
REMARK   18  A    between atoms: _49  and  _51
REMARK   19  A    between atoms: _51  and  _52
REMARK   20  A    between atoms: _51  and  _54
REMARK   21  A    between atoms: _54  and  _55
REMARK   22  A    between atoms: _57  and  _59
REMARK   23  A    between atoms: _59  and  _60
REMARK   24  A    between atoms: _59  and  _62
REMARK   25  A    between atoms: _62  and  _63
REMARK   26  A    between atoms: _69  and  _71
REMARK   27  A    between atoms: _71  and  _72
REMARK   28  A    between atoms: _71  and  _74
REMARK   29  A    between atoms: _74  and  _75
REMARK   30  A    between atoms: _80  and  _81
REMARK   31  A    between atoms: _83  and  _85
REMARK   32  A    between atoms: _85  and  _86
REMARK   33  A    between atoms: _85  and  _88
REMARK   34  A    between atoms: _88  and  _89
REMARK   35  A    between atoms: _89  and  _90
REMARK   36  A    between atoms: _90  and  _91
REMARK   37  A    between atoms: _100  and  _102
REMARK   38  A    between atoms: _102  and  _103
REMARK   39  A    between atoms: _102  and  _105
REMARK   40  A    between atoms: _105  and  _106
REMARK   41  A    between atoms: _112  and  _113
REMARK   42  A    between atoms: _118  and  _120
REMARK   43  A    between atoms: _120  and  _121
REMARK   44  A    between atoms: _120  and  _123
REMARK   45  A    between atoms: _123  and  _124
REMARK   46  A    between atoms: _124  and  _125
REMARK   47  A    between atoms: _125  and  _126
REMARK   48  A    between atoms: _135  and  _137
REMARK   49  A    between atoms: _137  and  _138
REMARK   50  A    between atoms: _137  and  _140
REMARK   51  A    between atoms: _140  and  _141
REMARK   52  A    between atoms: _141  and  _142
REMARK   53  A    between atoms: _145  and  _147
REMARK   54  A    between atoms: _147  and  _148
REMARK   55  A    between atoms: _147  and  _150
REMARK   56  A    between atoms: _150  and  _151
REMARK   57  A    between atoms: _151  and  _152
REMARK   58  A    between atoms: _155  and  _157
REMARK   59  A    between atoms: _157  and  _158
REMARK   60  A    between atoms: _160  and  _162
REMARK   61  A    between atoms: _162  and  _163
REMARK   62  A    between atoms: _165  and  _167
REMARK   63  A    between atoms: _167  and  _168
REMARK   64  A    between atoms: _167  and  _170
REMARK   65  A    between atoms: _170  and  _171
REMARK   66  A    between atoms: _181  and  _183
REMARK   67  A    between atoms: _183  and  _184
REMARK   68  A    between atoms: _183  and  _186
REMARK   69  A    between atoms: _188  and  _190
REMARK   70  A    between atoms: _190  and  _191
REMARK   71  A    between atoms: _190  and  _193
REMARK   72  A    between atoms: _193  and  _194
REMARK   73  A    between atoms: _200  and  _202
REMARK   74  A    between atoms: _202  and  _203
REMARK   75  A    between atoms: _202  and  _205
REMARK   76  A    between atoms: _205  and  _206
REMARK   77  A    between atoms: _206  and  _207
REMARK   78  A    between atoms: _207  and  _208
REMARK   79  A    between atoms: _217  and  _219
REMARK   80  A    between atoms: _219  and  _220
REMARK   81  A    between atoms: _219  and  _222
REMARK   82  A    between atoms: _222  and  _223
REMARK   83  A    between atoms: _228  and  _229
REMARK   84  A    between atoms: _231  and  _233
REMARK   85  A    between atoms: _233  and  _234
REMARK   86  A    between atoms: _233  and  _236
REMARK   87  A    between atoms: _236  and  _237
REMARK   88  A    between atoms: _237  and  _238
REMARK   89  A    between atoms: _241  and  _243
REMARK   90  A    between atoms: _243  and  _244
REMARK   91  A    between atoms: _243  and  _246
REMARK                            x       y       z     vdW  Elec       q    Type
REMARK                         _______ _______ _______ _____ _____    ______ ____
ROOT
ATOM      1  O   HOH     1       2.373  32.161 -14.759  0.00  0.00    +0.000 OA
ENDROOT
TORSDOF 0
REMARK  Name = ../refined-set-2016/5cp9/5cp9_pocket.pdb
REMARK  91 active torsions:
REMARK  status: ('A' for Active; 'I' for Inactive)
REMARK    1  A    between atoms: _1  and  _3
REMARK    2  A    between atoms: _3  and  _4
REMARK    3  A    between atoms: _3  and  _6
REMARK    4  A    between atoms: _6  and  _7
REMARK    5  A    between atoms: _17  and  _19
REMARK    6  A    between atoms: _19  and  _20
REMARK    7  A    between atoms: _19  and  _22
REMARK    8  A    between atoms: _22  and  _23
REMARK    9  A    between atoms: _28  and  _30
REMARK   10  A    between atoms: _30  and  _31
REMARK   11  A    between atoms: _30  and  _33
REMARK   12  A    between atoms: _33  and  _34
REMARK   13  A    between atoms: _34  and  _35
REMARK   14  A    between atoms: _38  and  _40
REMARK   15  A    between atoms: _40  and  _41
REMARK   16  A    between atoms: _40  and  _43
REMARK   17  A    between atoms: _43  and  _44
REMARK   18  A    between atoms: _49  and  _51
REMARK   19  A    between atoms: _51  and  _52
REMARK   20  A    between atoms: _51  and  _54
REMARK   21  A    between atoms: _54  and  _55
REMARK   22  A    between atoms: _57  and  _59
REMARK   23  A    between atoms: _59  and  _60
REMARK   24  A    between atoms: _59  and  _62
REMARK   25  A    between atoms: _62  and  _63
REMARK   26  A    between atoms: _69  and  _71
REMARK   27  A    between atoms: _71  and  _72
REMARK   28  A    between atoms: _71  and  _74
REMARK   29  A    between atoms: _74  and  _75
REMARK   30  A    between atoms: _80  and  _81
REMARK   31  A    between atoms: _83  and  _85
REMARK   32  A    between atoms: _85  and  _86
REMARK   33  A    between atoms: _85  and  _88
REMARK   34  A    between atoms: _88  and  _89
REMARK   35  A    between atoms: _89  and  _90
REMARK   36  A    between atoms: _90  and  _91
REMARK   37  A    between atoms: _100  and  _102
REMARK   38  A    between atoms: _102  and  _103
REMARK   39  A    between atoms: _102  and  _105
REMARK   40  A    between atoms: _105  and  _106
REMARK   41  A    between atoms: _112  and  _113
REMARK   42  A    between atoms: _118  and  _120
REMARK   43  A    between atoms: _120  and  _121
REMARK   44  A    between atoms: _120  and  _123
REMARK   45  A    between atoms: _123  and  _124
REMARK   46  A    between atoms: _124  and  _125
REMARK   47  A    between atoms: _125  and  _126
REMARK   48  A    between atoms: _135  and  _137
REMARK   49  A    between atoms: _137  and  _138
REMARK   50  A    between atoms: _137  and  _140
REMARK   51  A    between atoms: _140  and  _141
REMARK   52  A    between atoms: _141  and  _142
REMARK   53  A    between atoms: _145  and  _147
REMARK   54  A    between atoms: _147  and  _148
REMARK   55  A    between atoms: _147  and  _150
REMARK   56  A    between atoms: _150  and  _151
REMARK   57  A    between atoms: _151  and  _152
REMARK   58  A    between atoms: _155  and  _157
REMARK   59  A    between atoms: _157  and  _158
REMARK   60  A    between atoms: _160  and  _162
REMARK   61  A    between atoms: _162  and  _163
REMARK   62  A    between atoms: _165  and  _167
REMARK   63  A    between atoms: _167  and  _168
REMARK   64  A    between atoms: _167  and  _170
REMARK   65  A    between atoms: _170  and  _171
REMARK   66  A    between atoms: _181  and  _183
REMARK   67  A    between atoms: _183  and  _184
REMARK   68  A    between atoms: _183  and  _186
REMARK   69  A    between atoms: _188  and  _190
REMARK   70  A    between atoms: _190  and  _191
REMARK   71  A    between atoms: _190  and  _193
REMARK   72  A    between atoms: _193  and  _194
REMARK   73  A    between atoms: _200  and  _202
REMARK   74  A    between atoms: _202  and  _203
REMARK   75  A    between atoms: _202  and  _205
REMARK   76  A    between atoms: _205  and  _206
REMARK   77  A    between atoms: _206  and  _207
REMARK   78  A    between atoms: _207  and  _208
REMARK   79  A    between atoms: _217  and  _219
REMARK   80  A    between atoms: _219  and  _220
REMARK   81  A    between atoms: _219  and  _222
REMARK   82  A    between atoms: _222  and  _223
REMARK   83  A    between atoms: _228  and  _229
REMARK   84  A    between atoms: _231  and  _233
REMARK   85  A    between atoms: _233  and  _234
REMARK   86  A    between atoms: _233  and  _236
REMARK   87  A    between atoms: _236  and  _237
REMARK   88  A    between atoms: _237  and  _238
REMARK   89  A    between atoms: _241  and  _243
REMARK   90  A    between atoms: _243  and  _244
REMARK   91  A    between atoms: _243  and  _246
REMARK                            x       y       z     vdW  Elec       q    Type
REMARK                         _______ _______ _______ _____ _____    ______ ____
ROOT
ATOM      1  O   HOH     1       5.146  27.892 -10.822  0.00  0.00    +0.000 OA
ENDROOT
TORSDOF 0
REMARK  Name = ../refined-set-2016/5cp9/5cp9_pocket.pdb
REMARK  91 active torsions:
REMARK  status: ('A' for Active; 'I' for Inactive)
REMARK    1  A    between atoms: _1  and  _3
REMARK    2  A    between atoms: _3  and  _4
REMARK    3  A    between atoms: _3  and  _6
REMARK    4  A    between atoms: _6  and  _7
REMARK    5  A    between atoms: _17  and  _19
REMARK    6  A    between atoms: _19  and  _20
REMARK    7  A    between atoms: _19  and  _22
REMARK    8  A    between atoms: _22  and  _23
REMARK    9  A    between atoms: _28  and  _30
REMARK   10  A    between atoms: _30  and  _31
REMARK   11  A    between atoms: _30  and  _33
REMARK   12  A    between atoms: _33  and  _34
REMARK   13  A    between atoms: _34  and  _35
REMARK   14  A    between atoms: _38  and  _40
REMARK   15  A    between atoms: _40  and  _41
REMARK   16  A    between atoms: _40  and  _43
REMARK   17  A    between atoms: _43  and  _44
REMARK   18  A    between atoms: _49  and  _51
REMARK   19  A    between atoms: _51  and  _52
REMARK   20  A    between atoms: _51  and  _54
REMARK   21  A    between atoms: _54  and  _55
REMARK   22  A    between atoms: _57  and  _59
REMARK   23  A    between atoms: _59  and  _60
REMARK   24  A    between atoms: _59  and  _62
REMARK   25  A    between atoms: _62  and  _63
REMARK   26  A    between atoms: _69  and  _71
REMARK   27  A    between atoms: _71  and  _72
REMARK   28  A    between atoms: _71  and  _74
REMARK   29  A    between atoms: _74  and  _75
REMARK   30  A    between atoms: _80  and  _81
REMARK   31  A    between atoms: _83  and  _85
REMARK   32  A    between atoms: _85  and  _86
REMARK   33  A    between atoms: _85  and  _88
REMARK   34  A    between atoms: _88  and  _89
REMARK   35  A    between atoms: _89  and  _90
REMARK   36  A    between atoms: _90  and  _91
REMARK   37  A    between atoms: _100  and  _102
REMARK   38  A    between atoms: _102  and  _103
REMARK   39  A    between atoms: _102  and  _105
REMARK   40  A    between atoms: _105  and  _106
REMARK   41  A    between atoms: _112  and  _113
REMARK   42  A    between atoms: _118  and  _120
REMARK   43  A    between atoms: _120  and  _121
REMARK   44  A    between atoms: _120  and  _123
REMARK   45  A    between atoms: _123  and  _124
REMARK   46  A    between atoms: _124  and  _125
REMARK   47  A    between atoms: _125  and  _126
REMARK   48  A    between atoms: _135  and  _137
REMARK   49  A    between atoms: _137  and  _138
REMARK   50  A    between atoms: _137  and  _140
REMARK   51  A    between atoms: _140  and  _141
REMARK   52  A    between atoms: _141  and  _142
REMARK   53  A    between atoms: _145  and  _147
REMARK   54  A    between atoms: _147  and  _148
REMARK   55  A    between atoms: _147  and  _150
REMARK   56  A    between atoms: _150  and  _151
REMARK   57  A    between atoms: _151  and  _152
REMARK   58  A    between atoms: _155  and  _157
REMARK   59  A    between atoms: _157  and  _158
REMARK   60  A    between atoms: _160  and  _162
REMARK   61  A    between atoms: _162  and  _163
REMARK   62  A    between atoms: _165  and  _167
REMARK   63  A    between atoms: _167  and  _168
REMARK   64  A    between atoms: _167  and  _170
REMARK   65  A    between atoms: _170  and  _171
REMARK   66  A    between atoms: _181  and  _183
REMARK   67  A    between atoms: _183  and  _184
REMARK   68  A    between atoms: _183  and  _186
REMARK   69  A    between atoms: _188  and  _190
REMARK   70  A    between atoms: _190  and  _191
REMARK   71  A    between atoms: _190  and  _193
REMARK   72  A    between atoms: _193  and  _194
REMARK   73  A    between atoms: _200  and  _202
REMARK   74  A    between atoms: _202  and  _203
REMARK   75  A    between atoms: _202  and  _205
REMARK   76  A    between atoms: _205  and  _206
REMARK   77  A    between atoms: _206  and  _207
REMARK   78  A    between atoms: _207  and  _208
REMARK   79  A    between atoms: _217  and  _219
REMARK   80  A    between atoms: _219  and  _220
REMARK   81  A    between atoms: _219  and  _222
REMARK   82  A    between atoms: _222  and  _223
REMARK   83  A    between atoms: _228  and  _229
REMARK   84  A    between atoms: _231  and  _233
REMARK   85  A    between atoms: _233  and  _234
REMARK   86  A    between atoms: _233  and  _236
REMARK   87  A    between atoms: _236  and  _237
REMARK   88  A    between atoms: _237  and  _238
REMARK   89  A    between atoms: _241  and  _243
REMARK   90  A    between atoms: _243  and  _244
REMARK   91  A    between atoms: _243  and  _246
REMARK                            x       y       z     vdW  Elec       q    Type
REMARK                         _______ _______ _______ _____ _____    ______ ____
ROOT
ATOM      1  O   HOH     1      -3.136  37.765 -15.901  0.00  0.00    +0.000 OA
ENDROOT
TORSDOF 0
REMARK  Name = ../refined-set-2016/5cp9/5cp9_pocket.pdb
REMARK  91 active torsions:
REMARK  status: ('A' for Active; 'I' for Inactive)
REMARK    1  A    between atoms: _1  and  _3
REMARK    2  A    between atoms: _3  and  _4
REMARK    3  A    between atoms: _3  and  _6
REMARK    4  A    between atoms: _6  and  _7
REMARK    5  A    between atoms: _17  and  _19
REMARK    6  A    between atoms: _19  and  _20
REMARK    7  A    between atoms: _19  and  _22
REMARK    8  A    between atoms: _22  and  _23
REMARK    9  A    between atoms: _28  and  _30
REMARK   10  A    between atoms: _30  and  _31
REMARK   11  A    between atoms: _30  and  _33
REMARK   12  A    between atoms: _33  and  _34
REMARK   13  A    between atoms: _34  and  _35
REMARK   14  A    between atoms: _38  and  _40
REMARK   15  A    between atoms: _40  and  _41
REMARK   16  A    between atoms: _40  and  _43
REMARK   17  A    between atoms: _43  and  _44
REMARK   18  A    between atoms: _49  and  _51
REMARK   19  A    between atoms: _51  and  _52
REMARK   20  A    between atoms: _51  and  _54
REMARK   21  A    between atoms: _54  and  _55
REMARK   22  A    between atoms: _57  and  _59
REMARK   23  A    between atoms: _59  and  _60
REMARK   24  A    between atoms: _59  and  _62
REMARK   25  A    between atoms: _62  and  _63
REMARK   26  A    between atoms: _69  and  _71
REMARK   27  A    between atoms: _71  and  _72
REMARK   28  A    between atoms: _71  and  _74
REMARK   29  A    between atoms: _74  and  _75
REMARK   30  A    between atoms: _80  and  _81
REMARK   31  A    between atoms: _83  and  _85
REMARK   32  A    between atoms: _85  and  _86
REMARK   33  A    between atoms: _85  and  _88
REMARK   34  A    between atoms: _88  and  _89
REMARK   35  A    between atoms: _89  and  _90
REMARK   36  A    between atoms: _90  and  _91
REMARK   37  A    between atoms: _100  and  _102
REMARK   38  A    between atoms: _102  and  _103
REMARK   39  A    between atoms: _102  and  _105
REMARK   40  A    between atoms: _105  and  _106
REMARK   41  A    between atoms: _112  and  _113
REMARK   42  A    between atoms: _118  and  _120
REMARK   43  A    between atoms: _120  and  _121
REMARK   44  A    between atoms: _120  and  _123
REMARK   45  A    between atoms: _123  and  _124
REMARK   46  A    between atoms: _124  and  _125
REMARK   47  A    between atoms: _125  and  _126
REMARK   48  A    between atoms: _135  and  _137
REMARK   49  A    between atoms: _137  and  _138
REMARK   50  A    between atoms: _137  and  _140
REMARK   51  A    between atoms: _140  and  _141
REMARK   52  A    between atoms: _141  and  _142
REMARK   53  A    between atoms: _145  and  _147
REMARK   54  A    between atoms: _147  and  _148
REMARK   55  A    between atoms: _147  and  _150
REMARK   56  A    between atoms: _150  and  _151
REMARK   57  A    between atoms: _151  and  _152
REMARK   58  A    between atoms: _155  and  _157
REMARK   59  A    between atoms: _157  and  _158
REMARK   60  A    between atoms: _160  and  _162
REMARK   61  A    between atoms: _162  and  _163
REMARK   62  A    between atoms: _165  and  _167
REMARK   63  A    between atoms: _167  and  _168
REMARK   64  A    between atoms: _167  and  _170
REMARK   65  A    between atoms: _170  and  _171
REMARK   66  A    between atoms: _181  and  _183
REMARK   67  A    between atoms: _183  and  _184
REMARK   68  A    between atoms: _183  and  _186
REMARK   69  A    between atoms: _188  and  _190
REMARK   70  A    between atoms: _190  and  _191
REMARK   71  A    between atoms: _190  and  _193
REMARK   72  A    between atoms: _193  and  _194
REMARK   73  A    between atoms: _200  and  _202
REMARK   74  A    between atoms: _202  and  _203
REMARK   75  A    between atoms: _202  and  _205
REMARK   76  A    between atoms: _205  and  _206
REMARK   77  A    between atoms: _206  and  _207
REMARK   78  A    between atoms: _207  and  _208
REMARK   79  A    between atoms: _217  and  _219
REMARK   80  A    between atoms: _219  and  _220
REMARK   81  A    between atoms: _219  and  _222
REMARK   82  A    between atoms: _222  and  _223
REMARK   83  A    between atoms: _228  and  _229
REMARK   84  A    between atoms: _231  and  _233
REMARK   85  A    between atoms: _233  and  _234
REMARK   86  A    between atoms: _233  and  _236
REMARK   87  A    between atoms: _236  and  _237
REMARK   88  A    between atoms: _237  and  _238
REMARK   89  A    between atoms: _241  and  _243
REMARK   90  A    between atoms: _243  and  _244
REMARK   91  A    between atoms: _243  and  _246
REMARK                            x       y       z     vdW  Elec       q    Type
REMARK                         _______ _______ _______ _____ _____    ______ ____
ROOT
ATOM      1  O   HOH     1      -7.394  37.608 -17.062  0.00  0.00    +0.000 OA
ENDROOT
TORSDOF 0
REMARK  Name = ../refined-set-2016/5cp9/5cp9_pocket.pdb
REMARK  91 active torsions:
REMARK  status: ('A' for Active; 'I' for Inactive)
REMARK    1  A    between atoms: _1  and  _3
REMARK    2  A    between atoms: _3  and  _4
REMARK    3  A    between atoms: _3  and  _6
REMARK    4  A    between atoms: _6  and  _7
REMARK    5  A    between atoms: _17  and  _19
REMARK    6  A    between atoms: _19  and  _20
REMARK    7  A    between atoms: _19  and  _22
REMARK    8  A    between atoms: _22  and  _23
REMARK    9  A    between atoms: _28  and  _30
REMARK   10  A    between atoms: _30  and  _31
REMARK   11  A    between atoms: _30  and  _33
REMARK   12  A    between atoms: _33  and  _34
REMARK   13  A    between atoms: _34  and  _35
REMARK   14  A    between atoms: _38  and  _40
REMARK   15  A    between atoms: _40  and  _41
REMARK   16  A    between atoms: _40  and  _43
REMARK   17  A    between atoms: _43  and  _44
REMARK   18  A    between atoms: _49  and  _51
REMARK   19  A    between atoms: _51  and  _52
REMARK   20  A    between atoms: _51  and  _54
REMARK   21  A    between atoms: _54  and  _55
REMARK   22  A    between atoms: _57  and  _59
REMARK   23  A    between atoms: _59  and  _60
REMARK   24  A    between atoms: _59  and  _62
REMARK   25  A    between atoms: _62  and  _63
REMARK   26  A    between atoms: _69  and  _71
REMARK   27  A    between atoms: _71  and  _72
REMARK   28  A    between atoms: _71  and  _74
REMARK   29  A    between atoms: _74  and  _75
REMARK   30  A    between atoms: _80  and  _81
REMARK   31  A    between atoms: _83  and  _85
REMARK   32  A    between atoms: _85  and  _86
REMARK   33  A    between atoms: _85  and  _88
REMARK   34  A    between atoms: _88  and  _89
REMARK   35  A    between atoms: _89  and  _90
REMARK   36  A    between atoms: _90  and  _91
REMARK   37  A    between atoms: _100  and  _102
REMARK   38  A    between atoms: _102  and  _103
REMARK   39  A    between atoms: _102  and  _105
REMARK   40  A    between atoms: _105  and  _106
REMARK   41  A    between atoms: _112  and  _113
REMARK   42  A    between atoms: _118  and  _120
REMARK   43  A    between atoms: _120  and  _121
REMARK   44  A    between atoms: _120  and  _123
REMARK   45  A    between atoms: _123  and  _124
REMARK   46  A    between atoms: _124  and  _125
REMARK   47  A    between atoms: _125  and  _126
REMARK   48  A    between atoms: _135  and  _137
REMARK   49  A    between atoms: _137  and  _138
REMARK   50  A    between atoms: _137  and  _140
REMARK   51  A    between atoms: _140  and  _141
REMARK   52  A    between atoms: _141  and  _142
REMARK   53  A    between atoms: _145  and  _147
REMARK   54  A    between atoms: _147  and  _148
REMARK   55  A    between atoms: _147  and  _150
REMARK   56  A    between atoms: _150  and  _151
REMARK   57  A    between atoms: _151  and  _152
REMARK   58  A    between atoms: _155  and  _157
REMARK   59  A    between atoms: _157  and  _158
REMARK   60  A    between atoms: _160  and  _162
REMARK   61  A    between atoms: _162  and  _163
REMARK   62  A    between atoms: _165  and  _167
REMARK   63  A    between atoms: _167  and  _168
REMARK   64  A    between atoms: _167  and  _170
REMARK   65  A    between atoms: _170  and  _171
REMARK   66  A    between atoms: _181  and  _183
REMARK   67  A    between atoms: _183  and  _184
REMARK   68  A    between atoms: _183  and  _186
REMARK   69  A    between atoms: _188  and  _190
REMARK   70  A    between atoms: _190  and  _191
REMARK   71  A    between atoms: _190  and  _193
REMARK   72  A    between atoms: _193  and  _194
REMARK   73  A    between atoms: _200  and  _202
REMARK   74  A    between atoms: _202  and  _203
REMARK   75  A    between atoms: _202  and  _205
REMARK   76  A    between atoms: _205  and  _206
REMARK   77  A    between atoms: _206  and  _207
REMARK   78  A    between atoms: _207  and  _208
REMARK   79  A    between atoms: _217  and  _219
REMARK   80  A    between atoms: _219  and  _220
REMARK   81  A    between atoms: _219  and  _222
REMARK   82  A    between atoms: _222  and  _223
REMARK   83  A    between atoms: _228  and  _229
REMARK   84  A    between atoms: _231  and  _233
REMARK   85  A    between atoms: _233  and  _234
REMARK   86  A    between atoms: _233  and  _236
REMARK   87  A    between atoms: _236  and  _237
REMARK   88  A    between atoms: _237  and  _238
REMARK   89  A    between atoms: _241  and  _243
REMARK   90  A    between atoms: _243  and  _244
REMARK   91  A    between atoms: _243  and  _246
REMARK                            x       y       z     vdW  Elec       q    Type
REMARK                         _______ _______ _______ _____ _____    ______ ____
ROOT
ATOM      1  O   HOH     1     -11.841  35.934 -13.544  0.00  0.00    +0.000 OA
ENDROOT
TORSDOF 0
REMARK  Name = ../refined-set-2016/5cp9/5cp9_pocket.pdb
REMARK  91 active torsions:
REMARK  status: ('A' for Active; 'I' for Inactive)
REMARK    1  A    between atoms: _1  and  _3
REMARK    2  A    between atoms: _3  and  _4
REMARK    3  A    between atoms: _3  and  _6
REMARK    4  A    between atoms: _6  and  _7
REMARK    5  A    between atoms: _17  and  _19
REMARK    6  A    between atoms: _19  and  _20
REMARK    7  A    between atoms: _19  and  _22
REMARK    8  A    between atoms: _22  and  _23
REMARK    9  A    between atoms: _28  and  _30
REMARK   10  A    between atoms: _30  and  _31
REMARK   11  A    between atoms: _30  and  _33
REMARK   12  A    between atoms: _33  and  _34
REMARK   13  A    between atoms: _34  and  _35
REMARK   14  A    between atoms: _38  and  _40
REMARK   15  A    between atoms: _40  and  _41
REMARK   16  A    between atoms: _40  and  _43
REMARK   17  A    between atoms: _43  and  _44
REMARK   18  A    between atoms: _49  and  _51
REMARK   19  A    between atoms: _51  and  _52
REMARK   20  A    between atoms: _51  and  _54
REMARK   21  A    between atoms: _54  and  _55
REMARK   22  A    between atoms: _57  and  _59
REMARK   23  A    between atoms: _59  and  _60
REMARK   24  A    between atoms: _59  and  _62
REMARK   25  A    between atoms: _62  and  _63
REMARK   26  A    between atoms: _69  and  _71
REMARK   27  A    between atoms: _71  and  _72
REMARK   28  A    between atoms: _71  and  _74
REMARK   29  A    between atoms: _74  and  _75
REMARK   30  A    between atoms: _80  and  _81
REMARK   31  A    between atoms: _83  and  _85
REMARK   32  A    between atoms: _85  and  _86
REMARK   33  A    between atoms: _85  and  _88
REMARK   34  A    between atoms: _88  and  _89
REMARK   35  A    between atoms: _89  and  _90
REMARK   36  A    between atoms: _90  and  _91
REMARK   37  A    between atoms: _100  and  _102
REMARK   38  A    between atoms: _102  and  _103
REMARK   39  A    between atoms: _102  and  _105
REMARK   40  A    between atoms: _105  and  _106
REMARK   41  A    between atoms: _112  and  _113
REMARK   42  A    between atoms: _118  and  _120
REMARK   43  A    between atoms: _120  and  _121
REMARK   44  A    between atoms: _120  and  _123
REMARK   45  A    between atoms: _123  and  _124
REMARK   46  A    between atoms: _124  and  _125
REMARK   47  A    between atoms: _125  and  _126
REMARK   48  A    between atoms: _135  and  _137
REMARK   49  A    between atoms: _137  and  _138
REMARK   50  A    between atoms: _137  and  _140
REMARK   51  A    between atoms: _140  and  _141
REMARK   52  A    between atoms: _141  and  _142
REMARK   53  A    between atoms: _145  and  _147
REMARK   54  A    between atoms: _147  and  _148
REMARK   55  A    between atoms: _147  and  _150
REMARK   56  A    between atoms: _150  and  _151
REMARK   57  A    between atoms: _151  and  _152
REMARK   58  A    between atoms: _155  and  _157
REMARK   59  A    between atoms: _157  and  _158
REMARK   60  A    between atoms: _160  and  _162
REMARK   61  A    between atoms: _162  and  _163
REMARK   62  A    between atoms: _165  and  _167
REMARK   63  A    between atoms: _167  and  _168
REMARK   64  A    between atoms: _167  and  _170
REMARK   65  A    between atoms: _170  and  _171
REMARK   66  A    between atoms: _181  and  _183
REMARK   67  A    between atoms: _183  and  _184
REMARK   68  A    between atoms: _183  and  _186
REMARK   69  A    between atoms: _188  and  _190
REMARK   70  A    between atoms: _190  and  _191
REMARK   71  A    between atoms: _190  and  _193
REMARK   72  A    between atoms: _193  and  _194
REMARK   73  A    between atoms: _200  and  _202
REMARK   74  A    between atoms: _202  and  _203
REMARK   75  A    between atoms: _202  and  _205
REMARK   76  A    between atoms: _205  and  _206
REMARK   77  A    between atoms: _206  and  _207
REMARK   78  A    between atoms: _207  and  _208
REMARK   79  A    between atoms: _217  and  _219
REMARK   80  A    between atoms: _219  and  _220
REMARK   81  A    between atoms: _219  and  _222
REMARK   82  A    between atoms: _222  and  _223
REMARK   83  A    between atoms: _228  and  _229
REMARK   84  A    between atoms: _231  and  _233
REMARK   85  A    between atoms: _233  and  _234
REMARK   86  A    between atoms: _233  and  _236
REMARK   87  A    between atoms: _236  and  _237
REMARK   88  A    between atoms: _237  and  _238
REMARK   89  A    between atoms: _241  and  _243
REMARK   90  A    between atoms: _243  and  _244
REMARK   91  A    between atoms: _243  and  _246
REMARK                            x       y       z     vdW  Elec       q    Type
REMARK                         _______ _______ _______ _____ _____    ______ ____
ROOT
ATOM      1  O   HOH     1      -0.011  33.753 -18.454  0.00  0.00    +0.000 OA
ENDROOT
TORSDOF 0
REMARK  Name = ../refined-set-2016/5cp9/5cp9_pocket.pdb
REMARK  91 active torsions:
REMARK  status: ('A' for Active; 'I' for Inactive)
REMARK    1  A    between atoms: _1  and  _3
REMARK    2  A    between atoms: _3  and  _4
REMARK    3  A    between atoms: _3  and  _6
REMARK    4  A    between atoms: _6  and  _7
REMARK    5  A    between atoms: _17  and  _19
REMARK    6  A    between atoms: _19  and  _20
REMARK    7  A    between atoms: _19  and  _22
REMARK    8  A    between atoms: _22  and  _23
REMARK    9  A    between atoms: _28  and  _30
REMARK   10  A    between atoms: _30  and  _31
REMARK   11  A    between atoms: _30  and  _33
REMARK   12  A    between atoms: _33  and  _34
REMARK   13  A    between atoms: _34  and  _35
REMARK   14  A    between atoms: _38  and  _40
REMARK   15  A    between atoms: _40  and  _41
REMARK   16  A    between atoms: _40  and  _43
REMARK   17  A    between atoms: _43  and  _44
REMARK   18  A    between atoms: _49  and  _51
REMARK   19  A    between atoms: _51  and  _52
REMARK   20  A    between atoms: _51  and  _54
REMARK   21  A    between atoms: _54  and  _55
REMARK   22  A    between atoms: _57  and  _59
REMARK   23  A    between atoms: _59  and  _60
REMARK   24  A    between atoms: _59  and  _62
REMARK   25  A    between atoms: _62  and  _63
REMARK   26  A    between atoms: _69  and  _71
REMARK   27  A    between atoms: _71  and  _72
REMARK   28  A    between atoms: _71  and  _74
REMARK   29  A    between atoms: _74  and  _75
REMARK   30  A    between atoms: _80  and  _81
REMARK   31  A    between atoms: _83  and  _85
REMARK   32  A    between atoms: _85  and  _86
REMARK   33  A    between atoms: _85  and  _88
REMARK   34  A    between atoms: _88  and  _89
REMARK   35  A    between atoms: _89  and  _90
REMARK   36  A    between atoms: _90  and  _91
REMARK   37  A    between atoms: _100  and  _102
REMARK   38  A    between atoms: _102  and  _103
REMARK   39  A    between atoms: _102  and  _105
REMARK   40  A    between atoms: _105  and  _106
REMARK   41  A    between atoms: _112  and  _113
REMARK   42  A    between atoms: _118  and  _120
REMARK   43  A    between atoms: _120  and  _121
REMARK   44  A    between atoms: _120  and  _123
REMARK   45  A    between atoms: _123  and  _124
REMARK   46  A    between atoms: _124  and  _125
REMARK   47  A    between atoms: _125  and  _126
REMARK   48  A    between atoms: _135  and  _137
REMARK   49  A    between atoms: _137  and  _138
REMARK   50  A    between atoms: _137  and  _140
REMARK   51  A    between atoms: _140  and  _141
REMARK   52  A    between atoms: _141  and  _142
REMARK   53  A    between atoms: _145  and  _147
REMARK   54  A    between atoms: _147  and  _148
REMARK   55  A    between atoms: _147  and  _150
REMARK   56  A    between atoms: _150  and  _151
REMARK   57  A    between atoms: _151  and  _152
REMARK   58  A    between atoms: _155  and  _157
REMARK   59  A    between atoms: _157  and  _158
REMARK   60  A    between atoms: _160  and  _162
REMARK   61  A    between atoms: _162  and  _163
REMARK   62  A    between atoms: _165  and  _167
REMARK   63  A    between atoms: _167  and  _168
REMARK   64  A    between atoms: _167  and  _170
REMARK   65  A    between atoms: _170  and  _171
REMARK   66  A    between atoms: _181  and  _183
REMARK   67  A    between atoms: _183  and  _184
REMARK   68  A    between atoms: _183  and  _186
REMARK   69  A    between atoms: _188  and  _190
REMARK   70  A    between atoms: _190  and  _191
REMARK   71  A    between atoms: _190  and  _193
REMARK   72  A    between atoms: _193  and  _194
REMARK   73  A    between atoms: _200  and  _202
REMARK   74  A    between atoms: _202  and  _203
REMARK   75  A    between atoms: _202  and  _205
REMARK   76  A    between atoms: _205  and  _206
REMARK   77  A    between atoms: _206  and  _207
REMARK   78  A    between atoms: _207  and  _208
REMARK   79  A    between atoms: _217  and  _219
REMARK   80  A    between atoms: _219  and  _220
REMARK   81  A    between atoms: _219  and  _222
REMARK   82  A    between atoms: _222  and  _223
REMARK   83  A    between atoms: _228  and  _229
REMARK   84  A    between atoms: _231  and  _233
REMARK   85  A    between atoms: _233  and  _234
REMARK   86  A    between atoms: _233  and  _236
REMARK   87  A    between atoms: _236  and  _237
REMARK   88  A    between atoms: _237  and  _238
REMARK   89  A    between atoms: _241  and  _243
REMARK   90  A    between atoms: _243  and  _244
REMARK   91  A    between atoms: _243  and  _246
REMARK                            x       y       z     vdW  Elec       q    Type
REMARK                         _______ _______ _______ _____ _____    ______ ____
ROOT
ATOM      1  O   HOH     1      -1.787  36.878 -18.159  0.00  0.00    +0.000 OA
ENDROOT
TORSDOF 0
