REMARK  Name = ../refined-set-2016/4x6o/4x6o_pocket.pdb
REMARK  243 active torsions:
REMARK  status: ('A' for Active; 'I' for Inactive)
REMARK    1  A    between atoms: _1  and  _5
REMARK    2  A    between atoms: _5  and  _6
REMARK    3  A    between atoms: _5  and  _8
REMARK    4  A    between atoms: _8  and  _9
REMARK    5  A    between atoms: _12  and  _14
REMARK    6  A    between atoms: _14  and  _15
REMARK    7  A    between atoms: _14  and  _17
REMARK    8  A    between atoms: _20  and  _22
REMARK    9  A    between atoms: _22  and  _23
REMARK   10  A    between atoms: _22  and  _25
REMARK   11  A    between atoms: _25  and  _26
REMARK   12  A    between atoms: _29  and  _31
REMARK   13  A    between atoms: _31  and  _32
REMARK   14  A    between atoms: _31  and  _34
REMARK   15  A    between atoms: _34  and  _35
REMARK   16  A    between atoms: _38  and  _40
REMARK   17  A    between atoms: _40  and  _41
REMARK   18  A    between atoms: _40  and  _43
REMARK   19  A    between atoms: _43  and  _44
REMARK   20  A    between atoms: _49  and  _51
REMARK   21  A    between atoms: _51  and  _52
REMARK   22  A    between atoms: _51  and  _54
REMARK   23  A    between atoms: _54  and  _55
REMARK   24  A    between atoms: _58  and  _60
REMARK   25  A    between atoms: _60  and  _61
REMARK   26  A    between atoms: _60  and  _63
REMARK   27  A    between atoms: _63  and  _64
REMARK   28  A    between atoms: _67  and  _69
REMARK   29  A    between atoms: _69  and  _70
REMARK   30  A    between atoms: _69  and  _72
REMARK   31  A    between atoms: _72  and  _73
REMARK   32  A    between atoms: _73  and  _74
REMARK   33  A    between atoms: _79  and  _81
REMARK   34  A    between atoms: _81  and  _82
REMARK   35  A    between atoms: _81  and  _84
REMARK   36  A    between atoms: _84  and  _85
REMARK   37  A    between atoms: _85  and  _86
REMARK   38  A    between atoms: _86  and  _87
REMARK   39  A    between atoms: _96  and  _98
REMARK   40  A    between atoms: _98  and  _99
REMARK   41  A    between atoms: _98  and  _101
REMARK   42  A    between atoms: _101  and  _102
REMARK   43  A    between atoms: _107  and  _109
REMARK   44  A    between atoms: _109  and  _110
REMARK   45  A    between atoms: _109  and  _112
REMARK   46  A    between atoms: _112  and  _113
REMARK   47  A    between atoms: _116  and  _118
REMARK   48  A    between atoms: _118  and  _119
REMARK   49  A    between atoms: _118  and  _121
REMARK   50  A    between atoms: _121  and  _122
REMARK   51  A    between atoms: _122  and  _157
REMARK   52  A    between atoms: _123  and  _125
REMARK   53  A    between atoms: _125  and  _126
REMARK   54  A    between atoms: _128  and  _130
REMARK   55  A    between atoms: _130  and  _131
REMARK   56  A    between atoms: _134  and  _136
REMARK   57  A    between atoms: _136  and  _137
REMARK   58  A    between atoms: _140  and  _142
REMARK   59  A    between atoms: _142  and  _143
REMARK   60  A    between atoms: _142  and  _145
REMARK   61  A    between atoms: _145  and  _146
REMARK   62  A    between atoms: _151  and  _153
REMARK   63  A    between atoms: _153  and  _154
REMARK   64  A    between atoms: _153  and  _156
REMARK   65  A    between atoms: _156  and  _157
REMARK   66  A    between atoms: _158  and  _160
REMARK   67  A    between atoms: _160  and  _161
REMARK   68  A    between atoms: _160  and  _163
REMARK   69  A    between atoms: _163  and  _164
REMARK   70  A    between atoms: _170  and  _172
REMARK   71  A    between atoms: _172  and  _173
REMARK   72  A    between atoms: _172  and  _175
REMARK   73  A    between atoms: _175  and  _176
REMARK   74  A    between atoms: _181  and  _182
REMARK   75  A    between atoms: _184  and  _186
REMARK   76  A    between atoms: _186  and  _187
REMARK   77  A    between atoms: _186  and  _189
REMARK   78  A    between atoms: _192  and  _194
REMARK   79  A    between atoms: _194  and  _195
REMARK   80  A    between atoms: _194  and  _197
REMARK   81  A    between atoms: _197  and  _198
REMARK   82  A    between atoms: _198  and  _199
REMARK   83  A    between atoms: _204  and  _206
REMARK   84  A    between atoms: _206  and  _207
REMARK   85  A    between atoms: _210  and  _212
REMARK   86  A    between atoms: _212  and  _213
REMARK   87  A    between atoms: _212  and  _215
REMARK   88  A    between atoms: _215  and  _216
REMARK   89  A    between atoms: _219  and  _221
REMARK   90  A    between atoms: _221  and  _222
REMARK   91  A    between atoms: _221  and  _224
REMARK   92  A    between atoms: _227  and  _229
REMARK   93  A    between atoms: _229  and  _230
REMARK   94  A    between atoms: _229  and  _232
REMARK   95  A    between atoms: _232  and  _233
REMARK   96  A    between atoms: _243  and  _245
REMARK   97  A    between atoms: _245  and  _246
REMARK   98  A    between atoms: _248  and  _250
REMARK   99  A    between atoms: _250  and  _251
REMARK  100  A    between atoms: _250  and  _253
REMARK  101  A    between atoms: _253  and  _254
REMARK  102  A    between atoms: _259  and  _260
REMARK  103  A    between atoms: _262  and  _264
REMARK  104  A    between atoms: _264  and  _265
REMARK  105  A    between atoms: _264  and  _267
REMARK  106  A    between atoms: _267  and  _268
REMARK  107  A    between atoms: _268  and  _269
REMARK  108  A    between atoms: _269  and  _270
REMARK  109  A    between atoms: _270  and  _271
REMARK  110  A    between atoms: _275  and  _277
REMARK  111  A    between atoms: _277  and  _278
REMARK  112  A    between atoms: _277  and  _280
REMARK  113  A    between atoms: _280  and  _281
REMARK  114  A    between atoms: _284  and  _286
REMARK  115  A    between atoms: _286  and  _287
REMARK  116  A    between atoms: _286  and  _289
REMARK  117  A    between atoms: _289  and  _290
REMARK  118  A    between atoms: _293  and  _295
REMARK  119  A    between atoms: _295  and  _296
REMARK  120  A    between atoms: _295  and  _298
REMARK  121  A    between atoms: _298  and  _299
REMARK  122  A    between atoms: _299  and  _300
REMARK  123  A    between atoms: _300  and  _301
REMARK  124  A    between atoms: _301  and  _302
REMARK  125  A    between atoms: _306  and  _308
REMARK  126  A    between atoms: _308  and  _309
REMARK  127  A    between atoms: _308  and  _311
REMARK  128  A    between atoms: _311  and  _312
REMARK  129  A    between atoms: _315  and  _317
REMARK  130  A    between atoms: _317  and  _318
REMARK  131  A    between atoms: _317  and  _320
REMARK  132  A    between atoms: _320  and  _321
REMARK  133  A    between atoms: _321  and  _322
REMARK  134  A    between atoms: _327  and  _329
REMARK  135  A    between atoms: _329  and  _330
REMARK  136  A    between atoms: _329  and  _332
REMARK  137  A    between atoms: _332  and  _333
REMARK  138  A    between atoms: _338  and  _339
REMARK  139  A    between atoms: _341  and  _343
REMARK  140  A    between atoms: _343  and  _344
REMARK  141  A    between atoms: _343  and  _346
REMARK  142  A    between atoms: _346  and  _347
REMARK  143  A    between atoms: _350  and  _352
REMARK  144  A    between atoms: _352  and  _353
REMARK  145  A    between atoms: _352  and  _355
REMARK  146  A    between atoms: _357  and  _359
REMARK  147  A    between atoms: _359  and  _360
REMARK  148  A    between atoms: _363  and  _365
REMARK  149  A    between atoms: _365  and  _366
REMARK  150  A    between atoms: _365  and  _368
REMARK  151  A    between atoms: _368  and  _369
REMARK  152  A    between atoms: _369  and  _370
REMARK  153  A    between atoms: _370  and  _371
REMARK  154  A    between atoms: _371  and  _372
REMARK  155  A    between atoms: _376  and  _378
REMARK  156  A    between atoms: _378  and  _379
REMARK  157  A    between atoms: _378  and  _381
REMARK  158  A    between atoms: _381  and  _382
REMARK  159  A    between atoms: _385  and  _387
REMARK  160  A    between atoms: _387  and  _388
REMARK  161  A    between atoms: _391  and  _393
REMARK  162  A    between atoms: _393  and  _394
REMARK  163  A    between atoms: _393  and  _396
REMARK  164  A    between atoms: _396  and  _397
REMARK  165  A    between atoms: _397  and  _511
REMARK  166  A    between atoms: _398  and  _400
REMARK  167  A    between atoms: _400  and  _401
REMARK  168  A    between atoms: _400  and  _403
REMARK  169  A    between atoms: _403  and  _404
REMARK  170  A    between atoms: _404  and  _405
REMARK  171  A    between atoms: _405  and  _406
REMARK  172  A    between atoms: _406  and  _407
REMARK  173  A    between atoms: _411  and  _413
REMARK  174  A    between atoms: _413  and  _414
REMARK  175  A    between atoms: _416  and  _418
REMARK  176  A    between atoms: _418  and  _419
REMARK  177  A    between atoms: _418  and  _421
REMARK  178  A    between atoms: _421  and  _422
REMARK  179  A    between atoms: _425  and  _427
REMARK  180  A    between atoms: _427  and  _428
REMARK  181  A    between atoms: _427  and  _430
REMARK  182  A    between atoms: _430  and  _431
REMARK  183  A    between atoms: _433  and  _435
REMARK  184  A    between atoms: _435  and  _436
REMARK  185  A    between atoms: _438  and  _440
REMARK  186  A    between atoms: _440  and  _441
REMARK  187  A    between atoms: _443  and  _445
REMARK  188  A    between atoms: _445  and  _446
REMARK  189  A    between atoms: _445  and  _448
REMARK  190  A    between atoms: _448  and  _449
REMARK  191  A    between atoms: _452  and  _454
REMARK  192  A    between atoms: _454  and  _455
REMARK  193  A    between atoms: _454  and  _457
REMARK  194  A    between atoms: _457  and  _458
REMARK  195  A    between atoms: _461  and  _463
REMARK  196  A    between atoms: _463  and  _464
REMARK  197  A    between atoms: _463  and  _466
REMARK  198  A    between atoms: _466  and  _467
REMARK  199  A    between atoms: _469  and  _471
REMARK  200  A    between atoms: _471  and  _472
REMARK  201  A    between atoms: _471  and  _474
REMARK  202  A    between atoms: _474  and  _475
REMARK  203  A    between atoms: _485  and  _487
REMARK  204  A    between atoms: _487  and  _488
REMARK  205  A    between atoms: _490  and  _492
REMARK  206  A    between atoms: _492  and  _493
REMARK  207  A    between atoms: _492  and  _495
REMARK  208  A    between atoms: _495  and  _496
REMARK  209  A    between atoms: _496  and  _497
REMARK  210  A    between atoms: _500  and  _502
REMARK  211  A    between atoms: _502  and  _503
REMARK  212  A    between atoms: _505  and  _507
REMARK  213  A    between atoms: _507  and  _508
REMARK  214  A    between atoms: _507  and  _510
REMARK  215  A    between atoms: _510  and  _511
REMARK  216  A    between atoms: _512  and  _514
REMARK  217  A    between atoms: _514  and  _515
REMARK  218  A    between atoms: _518  and  _520
REMARK  219  A    between atoms: _520  and  _521
REMARK  220  A    between atoms: _520  and  _523
REMARK  221  A    between atoms: _523  and  _524
REMARK  222  A    between atoms: _524  and  _525
REMARK  223  A    between atoms: _530  and  _532
REMARK  224  A    between atoms: _532  and  _533
REMARK  225  A    between atoms: _532  and  _535
REMARK  226  A    between atoms: _535  and  _536
REMARK  227  A    between atoms: _536  and  _537
REMARK  228  A    between atoms: _537  and  _538
REMARK  229  A    between atoms: _548  and  _549
REMARK  230  A    between atoms: _554  and  _556
REMARK  231  A    between atoms: _556  and  _557
REMARK  232  A    between atoms: _559  and  _561
REMARK  233  A    between atoms: _561  and  _562
REMARK  234  A    between atoms: _561  and  _564
REMARK  235  A    between atoms: _567  and  _569
REMARK  236  A    between atoms: _569  and  _570
REMARK  237  A    between atoms: _569  and  _572
REMARK  238  A    between atoms: _572  and  _573
REMARK  239  A    between atoms: _578  and  _579
REMARK  240  A    between atoms: _581  and  _583
REMARK  241  A    between atoms: _583  and  _584
REMARK  242  A    between atoms: _583  and  _586
REMARK  243  A    between atoms: _586  and  _587
REMARK                            x       y       z     vdW  Elec       q    Type
REMARK                         _______ _______ _______ _____ _____    ______ ____
ROOT
ATOM      1  C   ILE A   1      42.098  -9.242  33.468  0.00  0.00    +0.202 C 
ATOM      2  O   ILE A   1      43.228  -8.950  33.855  0.00  0.00    -0.277 OA
ATOM      3  N   VAL A   2      41.450  -8.573  32.509  0.00  0.00    -0.301 N 
ATOM      4  H   VAL A   2      40.511  -8.917  32.223  0.00  0.00    +0.150 HD
ENDROOT
BRANCH   1   5
ATOM      5  CA  ILE A   1      41.363 -10.408  34.107  0.00  0.00    +0.013 C 
BRANCH   5   6
ATOM      6  N   ILE A   1      42.219 -11.601  34.036  0.00  0.00    +0.387 N 
ATOM      7  H1  ILE A   1      43.107 -11.420  34.546  0.00  0.00    -0.089 HD
ATOM      8  H2  ILE A   1      41.726 -12.407  34.471  0.00  0.00    -0.089 HD
ATOM      9  H3  ILE A   1      42.428 -11.817  33.040  0.00  0.00    -0.089 HD
ENDBRANCH   5   6
BRANCH   5  10
ATOM     10  CB  ILE A   1      40.910 -10.038  35.571  0.00  0.00    -0.011 C 
ATOM     11  CG2 ILE A   1      40.032  -8.709  35.603  0.00  0.00    -0.002 C 
BRANCH  10  12
ATOM     12  CG1 ILE A   1      40.193 -11.205  36.324  0.00  0.00    -0.002 C 
ATOM     13  CD1 ILE A   1      38.716 -11.577  35.849  0.00  0.00    -0.000 C 
ENDBRANCH  10  12
ENDBRANCH   5  10
ENDBRANCH   1   5
BRANCH   3  14
ATOM     14  CA  VAL A   2      41.985  -7.374  31.830  0.00  0.00    +0.137 C 
BRANCH  14  15
ATOM     15  CB  VAL A   2      41.541  -7.296  30.336  0.00  0.00    +0.026 C 
ATOM     16  CG2 VAL A   2      42.197  -6.105  29.626  0.00  0.00    +0.002 C 
ATOM     17  CG1 VAL A   2      41.841  -8.594  29.590  0.00  0.00    +0.002 C 
ENDBRANCH  14  15
BRANCH  14  18
ATOM     18  C   VAL A   2      41.463  -6.144  32.590  0.00  0.00    +0.227 C 
ATOM     19  O   VAL A   2      40.278  -6.085  32.898  0.00  0.00    -0.286 OA
ENDBRANCH  14  18
ENDBRANCH   3  14
TORSDOF 7
REMARK  Name = ../refined-set-2016/4x6o/4x6o_pocket.pdb
REMARK  243 active torsions:
REMARK  status: ('A' for Active; 'I' for Inactive)
REMARK    1  A    between atoms: _1  and  _5
REMARK    2  A    between atoms: _5  and  _6
REMARK    3  A    between atoms: _5  and  _8
REMARK    4  A    between atoms: _8  and  _9
REMARK    5  A    between atoms: _12  and  _14
REMARK    6  A    between atoms: _14  and  _15
REMARK    7  A    between atoms: _14  and  _17
REMARK    8  A    between atoms: _20  and  _22
REMARK    9  A    between atoms: _22  and  _23
REMARK   10  A    between atoms: _22  and  _25
REMARK   11  A    between atoms: _25  and  _26
REMARK   12  A    between atoms: _29  and  _31
REMARK   13  A    between atoms: _31  and  _32
REMARK   14  A    between atoms: _31  and  _34
REMARK   15  A    between atoms: _34  and  _35
REMARK   16  A    between atoms: _38  and  _40
REMARK   17  A    between atoms: _40  and  _41
REMARK   18  A    between atoms: _40  and  _43
REMARK   19  A    between atoms: _43  and  _44
REMARK   20  A    between atoms: _49  and  _51
REMARK   21  A    between atoms: _51  and  _52
REMARK   22  A    between atoms: _51  and  _54
REMARK   23  A    between atoms: _54  and  _55
REMARK   24  A    between atoms: _58  and  _60
REMARK   25  A    between atoms: _60  and  _61
REMARK   26  A    between atoms: _60  and  _63
REMARK   27  A    between atoms: _63  and  _64
REMARK   28  A    between atoms: _67  and  _69
REMARK   29  A    between atoms: _69  and  _70
REMARK   30  A    between atoms: _69  and  _72
REMARK   31  A    between atoms: _72  and  _73
REMARK   32  A    between atoms: _73  and  _74
REMARK   33  A    between atoms: _79  and  _81
REMARK   34  A    between atoms: _81  and  _82
REMARK   35  A    between atoms: _81  and  _84
REMARK   36  A    between atoms: _84  and  _85
REMARK   37  A    between atoms: _85  and  _86
REMARK   38  A    between atoms: _86  and  _87
REMARK   39  A    between atoms: _96  and  _98
REMARK   40  A    between atoms: _98  and  _99
REMARK   41  A    between atoms: _98  and  _101
REMARK   42  A    between atoms: _101  and  _102
REMARK   43  A    between atoms: _107  and  _109
REMARK   44  A    between atoms: _109  and  _110
REMARK   45  A    between atoms: _109  and  _112
REMARK   46  A    between atoms: _112  and  _113
REMARK   47  A    between atoms: _116  and  _118
REMARK   48  A    between atoms: _118  and  _119
REMARK   49  A    between atoms: _118  and  _121
REMARK   50  A    between atoms: _121  and  _122
REMARK   51  A    between atoms: _122  and  _157
REMARK   52  A    between atoms: _123  and  _125
REMARK   53  A    between atoms: _125  and  _126
REMARK   54  A    between atoms: _128  and  _130
REMARK   55  A    between atoms: _130  and  _131
REMARK   56  A    between atoms: _134  and  _136
REMARK   57  A    between atoms: _136  and  _137
REMARK   58  A    between atoms: _140  and  _142
REMARK   59  A    between atoms: _142  and  _143
REMARK   60  A    between atoms: _142  and  _145
REMARK   61  A    between atoms: _145  and  _146
REMARK   62  A    between atoms: _151  and  _153
REMARK   63  A    between atoms: _153  and  _154
REMARK   64  A    between atoms: _153  and  _156
REMARK   65  A    between atoms: _156  and  _157
REMARK   66  A    between atoms: _158  and  _160
REMARK   67  A    between atoms: _160  and  _161
REMARK   68  A    between atoms: _160  and  _163
REMARK   69  A    between atoms: _163  and  _164
REMARK   70  A    between atoms: _170  and  _172
REMARK   71  A    between atoms: _172  and  _173
REMARK   72  A    between atoms: _172  and  _175
REMARK   73  A    between atoms: _175  and  _176
REMARK   74  A    between atoms: _181  and  _182
REMARK   75  A    between atoms: _184  and  _186
REMARK   76  A    between atoms: _186  and  _187
REMARK   77  A    between atoms: _186  and  _189
REMARK   78  A    between atoms: _192  and  _194
REMARK   79  A    between atoms: _194  and  _195
REMARK   80  A    between atoms: _194  and  _197
REMARK   81  A    between atoms: _197  and  _198
REMARK   82  A    between atoms: _198  and  _199
REMARK   83  A    between atoms: _204  and  _206
REMARK   84  A    between atoms: _206  and  _207
REMARK   85  A    between atoms: _210  and  _212
REMARK   86  A    between atoms: _212  and  _213
REMARK   87  A    between atoms: _212  and  _215
REMARK   88  A    between atoms: _215  and  _216
REMARK   89  A    between atoms: _219  and  _221
REMARK   90  A    between atoms: _221  and  _222
REMARK   91  A    between atoms: _221  and  _224
REMARK   92  A    between atoms: _227  and  _229
REMARK   93  A    between atoms: _229  and  _230
REMARK   94  A    between atoms: _229  and  _232
REMARK   95  A    between atoms: _232  and  _233
REMARK   96  A    between atoms: _243  and  _245
REMARK   97  A    between atoms: _245  and  _246
REMARK   98  A    between atoms: _248  and  _250
REMARK   99  A    between atoms: _250  and  _251
REMARK  100  A    between atoms: _250  and  _253
REMARK  101  A    between atoms: _253  and  _254
REMARK  102  A    between atoms: _259  and  _260
REMARK  103  A    between atoms: _262  and  _264
REMARK  104  A    between atoms: _264  and  _265
REMARK  105  A    between atoms: _264  and  _267
REMARK  106  A    between atoms: _267  and  _268
REMARK  107  A    between atoms: _268  and  _269
REMARK  108  A    between atoms: _269  and  _270
REMARK  109  A    between atoms: _270  and  _271
REMARK  110  A    between atoms: _275  and  _277
REMARK  111  A    between atoms: _277  and  _278
REMARK  112  A    between atoms: _277  and  _280
REMARK  113  A    between atoms: _280  and  _281
REMARK  114  A    between atoms: _284  and  _286
REMARK  115  A    between atoms: _286  and  _287
REMARK  116  A    between atoms: _286  and  _289
REMARK  117  A    between atoms: _289  and  _290
REMARK  118  A    between atoms: _293  and  _295
REMARK  119  A    between atoms: _295  and  _296
REMARK  120  A    between atoms: _295  and  _298
REMARK  121  A    between atoms: _298  and  _299
REMARK  122  A    between atoms: _299  and  _300
REMARK  123  A    between atoms: _300  and  _301
REMARK  124  A    between atoms: _301  and  _302
REMARK  125  A    between atoms: _306  and  _308
REMARK  126  A    between atoms: _308  and  _309
REMARK  127  A    between atoms: _308  and  _311
REMARK  128  A    between atoms: _311  and  _312
REMARK  129  A    between atoms: _315  and  _317
REMARK  130  A    between atoms: _317  and  _318
REMARK  131  A    between atoms: _317  and  _320
REMARK  132  A    between atoms: _320  and  _321
REMARK  133  A    between atoms: _321  and  _322
REMARK  134  A    between atoms: _327  and  _329
REMARK  135  A    between atoms: _329  and  _330
REMARK  136  A    between atoms: _329  and  _332
REMARK  137  A    between atoms: _332  and  _333
REMARK  138  A    between atoms: _338  and  _339
REMARK  139  A    between atoms: _341  and  _343
REMARK  140  A    between atoms: _343  and  _344
REMARK  141  A    between atoms: _343  and  _346
REMARK  142  A    between atoms: _346  and  _347
REMARK  143  A    between atoms: _350  and  _352
REMARK  144  A    between atoms: _352  and  _353
REMARK  145  A    between atoms: _352  and  _355
REMARK  146  A    between atoms: _357  and  _359
REMARK  147  A    between atoms: _359  and  _360
REMARK  148  A    between atoms: _363  and  _365
REMARK  149  A    between atoms: _365  and  _366
REMARK  150  A    between atoms: _365  and  _368
REMARK  151  A    between atoms: _368  and  _369
REMARK  152  A    between atoms: _369  and  _370
REMARK  153  A    between atoms: _370  and  _371
REMARK  154  A    between atoms: _371  and  _372
REMARK  155  A    between atoms: _376  and  _378
REMARK  156  A    between atoms: _378  and  _379
REMARK  157  A    between atoms: _378  and  _381
REMARK  158  A    between atoms: _381  and  _382
REMARK  159  A    between atoms: _385  and  _387
REMARK  160  A    between atoms: _387  and  _388
REMARK  161  A    between atoms: _391  and  _393
REMARK  162  A    between atoms: _393  and  _394
REMARK  163  A    between atoms: _393  and  _396
REMARK  164  A    between atoms: _396  and  _397
REMARK  165  A    between atoms: _397  and  _511
REMARK  166  A    between atoms: _398  and  _400
REMARK  167  A    between atoms: _400  and  _401
REMARK  168  A    between atoms: _400  and  _403
REMARK  169  A    between atoms: _403  and  _404
REMARK  170  A    between atoms: _404  and  _405
REMARK  171  A    between atoms: _405  and  _406
REMARK  172  A    between atoms: _406  and  _407
REMARK  173  A    between atoms: _411  and  _413
REMARK  174  A    between atoms: _413  and  _414
REMARK  175  A    between atoms: _416  and  _418
REMARK  176  A    between atoms: _418  and  _419
REMARK  177  A    between atoms: _418  and  _421
REMARK  178  A    between atoms: _421  and  _422
REMARK  179  A    between atoms: _425  and  _427
REMARK  180  A    between atoms: _427  and  _428
REMARK  181  A    between atoms: _427  and  _430
REMARK  182  A    between atoms: _430  and  _431
REMARK  183  A    between atoms: _433  and  _435
REMARK  184  A    between atoms: _435  and  _436
REMARK  185  A    between atoms: _438  and  _440
REMARK  186  A    between atoms: _440  and  _441
REMARK  187  A    between atoms: _443  and  _445
REMARK  188  A    between atoms: _445  and  _446
REMARK  189  A    between atoms: _445  and  _448
REMARK  190  A    between atoms: _448  and  _449
REMARK  191  A    between atoms: _452  and  _454
REMARK  192  A    between atoms: _454  and  _455
REMARK  193  A    between atoms: _454  and  _457
REMARK  194  A    between atoms: _457  and  _458
REMARK  195  A    between atoms: _461  and  _463
REMARK  196  A    between atoms: _463  and  _464
REMARK  197  A    between atoms: _463  and  _466
REMARK  198  A    between atoms: _466  and  _467
REMARK  199  A    between atoms: _469  and  _471
REMARK  200  A    between atoms: _471  and  _472
REMARK  201  A    between atoms: _471  and  _474
REMARK  202  A    between atoms: _474  and  _475
REMARK  203  A    between atoms: _485  and  _487
REMARK  204  A    between atoms: _487  and  _488
REMARK  205  A    between atoms: _490  and  _492
REMARK  206  A    between atoms: _492  and  _493
REMARK  207  A    between atoms: _492  and  _495
REMARK  208  A    between atoms: _495  and  _496
REMARK  209  A    between atoms: _496  and  _497
REMARK  210  A    between atoms: _500  and  _502
REMARK  211  A    between atoms: _502  and  _503
REMARK  212  A    between atoms: _505  and  _507
REMARK  213  A    between atoms: _507  and  _508
REMARK  214  A    between atoms: _507  and  _510
REMARK  215  A    between atoms: _510  and  _511
REMARK  216  A    between atoms: _512  and  _514
REMARK  217  A    between atoms: _514  and  _515
REMARK  218  A    between atoms: _518  and  _520
REMARK  219  A    between atoms: _520  and  _521
REMARK  220  A    between atoms: _520  and  _523
REMARK  221  A    between atoms: _523  and  _524
REMARK  222  A    between atoms: _524  and  _525
REMARK  223  A    between atoms: _530  and  _532
REMARK  224  A    between atoms: _532  and  _533
REMARK  225  A    between atoms: _532  and  _535
REMARK  226  A    between atoms: _535  and  _536
REMARK  227  A    between atoms: _536  and  _537
REMARK  228  A    between atoms: _537  and  _538
REMARK  229  A    between atoms: _548  and  _549
REMARK  230  A    between atoms: _554  and  _556
REMARK  231  A    between atoms: _556  and  _557
REMARK  232  A    between atoms: _559  and  _561
REMARK  233  A    between atoms: _561  and  _562
REMARK  234  A    between atoms: _561  and  _564
REMARK  235  A    between atoms: _567  and  _569
REMARK  236  A    between atoms: _569  and  _570
REMARK  237  A    between atoms: _569  and  _572
REMARK  238  A    between atoms: _572  and  _573
REMARK  239  A    between atoms: _578  and  _579
REMARK  240  A    between atoms: _581  and  _583
REMARK  241  A    between atoms: _583  and  _584
REMARK  242  A    between atoms: _583  and  _586
REMARK  243  A    between atoms: _586  and  _587
REMARK                            x       y       z     vdW  Elec       q    Type
REMARK                         _______ _______ _______ _____ _____    ______ ____
ROOT
ATOM      1  C   LEU A   2      42.522 -25.927  39.326  0.00  0.00    +0.241 C 
ATOM      2  N   HIS A   3      43.315 -26.853  39.874  0.00  0.00    -0.297 N 
ATOM      3  H   HIS A   3      43.022 -27.307  40.763  0.00  0.00    +0.150 HD
ATOM      4  O   LEU A   2      42.833 -25.259  38.325  0.00  0.00    -0.273 OA
ENDROOT
BRANCH   2   5
ATOM      5  CA  HIS A   3      44.578 -27.244  39.262  0.00  0.00    +0.155 C 
BRANCH   5   6
ATOM      6  C   HIS A   3      44.458 -28.615  38.653  0.00  0.00    +0.241 C 
ATOM      7  O   HIS A   3      43.629 -29.435  39.055  0.00  0.00    -0.273 OA
ATOM      8  N   THR A   4      45.287 -28.849  37.657  0.00  0.00    -0.296 N 
ATOM      9  H   THR A   4      45.875 -28.065  37.309  0.00  0.00    +0.150 HD
BRANCH   8  10
ATOM     10  CA  THR A   4      45.421 -30.139  37.024  0.00  0.00    +0.164 C 
BRANCH  10  11
ATOM     11  CB  THR A   4      45.137 -30.089  35.507  0.00  0.00    +0.136 C 
ATOM     12  CG2 THR A   4      46.119 -29.224  34.736  0.00  0.00    +0.034 C 
BRANCH  11  13
ATOM     13  OG1 THR A   4      45.203 -31.420  35.013  0.00  0.00    -0.382 OA
ATOM     14  HG1 THR A   4      45.024 -31.419  34.039  0.00  0.00    +0.210 HD
ENDBRANCH  11  13
ENDBRANCH  10  11
BRANCH  10  15
ATOM     15  C   THR A   4      46.829 -30.561  37.402  0.00  0.00    +0.229 C 
ATOM     16  O   THR A   4      47.710 -29.702  37.594  0.00  0.00    -0.286 OA
ENDBRANCH  10  15
ENDBRANCH   8  10
ENDBRANCH   5   6
BRANCH   5  17
ATOM     17  CB  HIS A   3      45.735 -27.261  40.292  0.00  0.00    +0.076 C 
BRANCH  17  18
ATOM     18  CG  HIS A   3      46.284 -25.917  40.653  0.00  0.00    +0.082 A 
ATOM     19  ND1 HIS A   3      47.636 -25.731  40.870  0.00  0.00    -0.227 NA
ATOM     20  CE1 HIS A   3      47.785 -24.445  41.149  0.00  0.00    +0.199 A 
ATOM     21  NE2 HIS A   3      46.607 -23.811  41.161  0.00  0.00    -0.221 NA
ATOM     22  CD2 HIS A   3      45.642 -24.744  40.856  0.00  0.00    +0.115 A 
ENDBRANCH  17  18
ENDBRANCH   5  17
ENDBRANCH   2   5
BRANCH   1  23
ATOM     23  CA  LEU A   2      41.228 -25.653  40.070  0.00  0.00    +0.149 C 
BRANCH  23  26
ATOM     24  C   THR A   1      41.663 -23.801  41.607  0.00  0.00    +0.241 C 
ATOM     25  O   THR A   1      41.955 -24.551  42.549  0.00  0.00    -0.274 OA
ATOM     26  N   LEU A   2      41.244 -24.246  40.416  0.00  0.00    -0.297 N 
ATOM     27  H   LEU A   2      40.917 -23.555  39.711  0.00  0.00    +0.150 HD
BRANCH  24  28
ATOM     28  CA  THR A   1      41.665 -22.279  41.784  0.00  0.00    +0.172 C 
BRANCH  28  29
ATOM     29  CB  THR A   1      43.068 -21.642  41.944  0.00  0.00    +0.135 C 
ATOM     30  CG2 THR A   1      43.699 -21.904  43.326  0.00  0.00    +0.034 C 
BRANCH  29  31
ATOM     31  OG1 THR A   1      43.917 -22.149  40.924  0.00  0.00    -0.383 OA
ATOM     32  HG1 THR A   1      43.541 -21.918  40.038  0.00  0.00    +0.210 HD
ENDBRANCH  29  31
ENDBRANCH  28  29
BRANCH  28  33
ATOM     33  N   THR A   1      40.781 -22.003  42.913  0.00  0.00    -0.236 NA
ATOM     34  H   THR A   1      41.088 -22.308  43.859  0.00  0.00    +0.142 HD
ENDBRANCH  28  33
ENDBRANCH  24  28
ENDBRANCH  23  26
BRANCH  23  35
ATOM     35  CB  LEU A   2      39.999 -25.987  39.195  0.00  0.00    +0.029 C 
BRANCH  35  36
ATOM     36  CG  LEU A   2      39.933 -27.390  38.569  0.00  0.00    +0.002 C 
ATOM     37  CD2 LEU A   2      39.731 -28.484  39.649  0.00  0.00    +0.000 C 
ATOM     38  CD1 LEU A   2      38.810 -27.456  37.561  0.00  0.00    +0.000 C 
ENDBRANCH  35  36
ENDBRANCH  23  35
ENDBRANCH   1  23
TORSDOF 16
REMARK  Name = ../refined-set-2016/4x6o/4x6o_pocket.pdb
REMARK  243 active torsions:
REMARK  status: ('A' for Active; 'I' for Inactive)
REMARK    1  A    between atoms: _1  and  _5
REMARK    2  A    between atoms: _5  and  _6
REMARK    3  A    between atoms: _5  and  _8
REMARK    4  A    between atoms: _8  and  _9
REMARK    5  A    between atoms: _12  and  _14
REMARK    6  A    between atoms: _14  and  _15
REMARK    7  A    between atoms: _14  and  _17
REMARK    8  A    between atoms: _20  and  _22
REMARK    9  A    between atoms: _22  and  _23
REMARK   10  A    between atoms: _22  and  _25
REMARK   11  A    between atoms: _25  and  _26
REMARK   12  A    between atoms: _29  and  _31
REMARK   13  A    between atoms: _31  and  _32
REMARK   14  A    between atoms: _31  and  _34
REMARK   15  A    between atoms: _34  and  _35
REMARK   16  A    between atoms: _38  and  _40
REMARK   17  A    between atoms: _40  and  _41
REMARK   18  A    between atoms: _40  and  _43
REMARK   19  A    between atoms: _43  and  _44
REMARK   20  A    between atoms: _49  and  _51
REMARK   21  A    between atoms: _51  and  _52
REMARK   22  A    between atoms: _51  and  _54
REMARK   23  A    between atoms: _54  and  _55
REMARK   24  A    between atoms: _58  and  _60
REMARK   25  A    between atoms: _60  and  _61
REMARK   26  A    between atoms: _60  and  _63
REMARK   27  A    between atoms: _63  and  _64
REMARK   28  A    between atoms: _67  and  _69
REMARK   29  A    between atoms: _69  and  _70
REMARK   30  A    between atoms: _69  and  _72
REMARK   31  A    between atoms: _72  and  _73
REMARK   32  A    between atoms: _73  and  _74
REMARK   33  A    between atoms: _79  and  _81
REMARK   34  A    between atoms: _81  and  _82
REMARK   35  A    between atoms: _81  and  _84
REMARK   36  A    between atoms: _84  and  _85
REMARK   37  A    between atoms: _85  and  _86
REMARK   38  A    between atoms: _86  and  _87
REMARK   39  A    between atoms: _96  and  _98
REMARK   40  A    between atoms: _98  and  _99
REMARK   41  A    between atoms: _98  and  _101
REMARK   42  A    between atoms: _101  and  _102
REMARK   43  A    between atoms: _107  and  _109
REMARK   44  A    between atoms: _109  and  _110
REMARK   45  A    between atoms: _109  and  _112
REMARK   46  A    between atoms: _112  and  _113
REMARK   47  A    between atoms: _116  and  _118
REMARK   48  A    between atoms: _118  and  _119
REMARK   49  A    between atoms: _118  and  _121
REMARK   50  A    between atoms: _121  and  _122
REMARK   51  A    between atoms: _122  and  _157
REMARK   52  A    between atoms: _123  and  _125
REMARK   53  A    between atoms: _125  and  _126
REMARK   54  A    between atoms: _128  and  _130
REMARK   55  A    between atoms: _130  and  _131
REMARK   56  A    between atoms: _134  and  _136
REMARK   57  A    between atoms: _136  and  _137
REMARK   58  A    between atoms: _140  and  _142
REMARK   59  A    between atoms: _142  and  _143
REMARK   60  A    between atoms: _142  and  _145
REMARK   61  A    between atoms: _145  and  _146
REMARK   62  A    between atoms: _151  and  _153
REMARK   63  A    between atoms: _153  and  _154
REMARK   64  A    between atoms: _153  and  _156
REMARK   65  A    between atoms: _156  and  _157
REMARK   66  A    between atoms: _158  and  _160
REMARK   67  A    between atoms: _160  and  _161
REMARK   68  A    between atoms: _160  and  _163
REMARK   69  A    between atoms: _163  and  _164
REMARK   70  A    between atoms: _170  and  _172
REMARK   71  A    between atoms: _172  and  _173
REMARK   72  A    between atoms: _172  and  _175
REMARK   73  A    between atoms: _175  and  _176
REMARK   74  A    between atoms: _181  and  _182
REMARK   75  A    between atoms: _184  and  _186
REMARK   76  A    between atoms: _186  and  _187
REMARK   77  A    between atoms: _186  and  _189
REMARK   78  A    between atoms: _192  and  _194
REMARK   79  A    between atoms: _194  and  _195
REMARK   80  A    between atoms: _194  and  _197
REMARK   81  A    between atoms: _197  and  _198
REMARK   82  A    between atoms: _198  and  _199
REMARK   83  A    between atoms: _204  and  _206
REMARK   84  A    between atoms: _206  and  _207
REMARK   85  A    between atoms: _210  and  _212
REMARK   86  A    between atoms: _212  and  _213
REMARK   87  A    between atoms: _212  and  _215
REMARK   88  A    between atoms: _215  and  _216
REMARK   89  A    between atoms: _219  and  _221
REMARK   90  A    between atoms: _221  and  _222
REMARK   91  A    between atoms: _221  and  _224
REMARK   92  A    between atoms: _227  and  _229
REMARK   93  A    between atoms: _229  and  _230
REMARK   94  A    between atoms: _229  and  _232
REMARK   95  A    between atoms: _232  and  _233
REMARK   96  A    between atoms: _243  and  _245
REMARK   97  A    between atoms: _245  and  _246
REMARK   98  A    between atoms: _248  and  _250
REMARK   99  A    between atoms: _250  and  _251
REMARK  100  A    between atoms: _250  and  _253
REMARK  101  A    between atoms: _253  and  _254
REMARK  102  A    between atoms: _259  and  _260
REMARK  103  A    between atoms: _262  and  _264
REMARK  104  A    between atoms: _264  and  _265
REMARK  105  A    between atoms: _264  and  _267
REMARK  106  A    between atoms: _267  and  _268
REMARK  107  A    between atoms: _268  and  _269
REMARK  108  A    between atoms: _269  and  _270
REMARK  109  A    between atoms: _270  and  _271
REMARK  110  A    between atoms: _275  and  _277
REMARK  111  A    between atoms: _277  and  _278
REMARK  112  A    between atoms: _277  and  _280
REMARK  113  A    between atoms: _280  and  _281
REMARK  114  A    between atoms: _284  and  _286
REMARK  115  A    between atoms: _286  and  _287
REMARK  116  A    between atoms: _286  and  _289
REMARK  117  A    between atoms: _289  and  _290
REMARK  118  A    between atoms: _293  and  _295
REMARK  119  A    between atoms: _295  and  _296
REMARK  120  A    between atoms: _295  and  _298
REMARK  121  A    between atoms: _298  and  _299
REMARK  122  A    between atoms: _299  and  _300
REMARK  123  A    between atoms: _300  and  _301
REMARK  124  A    between atoms: _301  and  _302
REMARK  125  A    between atoms: _306  and  _308
REMARK  126  A    between atoms: _308  and  _309
REMARK  127  A    between atoms: _308  and  _311
REMARK  128  A    between atoms: _311  and  _312
REMARK  129  A    between atoms: _315  and  _317
REMARK  130  A    between atoms: _317  and  _318
REMARK  131  A    between atoms: _317  and  _320
REMARK  132  A    between atoms: _320  and  _321
REMARK  133  A    between atoms: _321  and  _322
REMARK  134  A    between atoms: _327  and  _329
REMARK  135  A    between atoms: _329  and  _330
REMARK  136  A    between atoms: _329  and  _332
REMARK  137  A    between atoms: _332  and  _333
REMARK  138  A    between atoms: _338  and  _339
REMARK  139  A    between atoms: _341  and  _343
REMARK  140  A    between atoms: _343  and  _344
REMARK  141  A    between atoms: _343  and  _346
REMARK  142  A    between atoms: _346  and  _347
REMARK  143  A    between atoms: _350  and  _352
REMARK  144  A    between atoms: _352  and  _353
REMARK  145  A    between atoms: _352  and  _355
REMARK  146  A    between atoms: _357  and  _359
REMARK  147  A    between atoms: _359  and  _360
REMARK  148  A    between atoms: _363  and  _365
REMARK  149  A    between atoms: _365  and  _366
REMARK  150  A    between atoms: _365  and  _368
REMARK  151  A    between atoms: _368  and  _369
REMARK  152  A    between atoms: _369  and  _370
REMARK  153  A    between atoms: _370  and  _371
REMARK  154  A    between atoms: _371  and  _372
REMARK  155  A    between atoms: _376  and  _378
REMARK  156  A    between atoms: _378  and  _379
REMARK  157  A    between atoms: _378  and  _381
REMARK  158  A    between atoms: _381  and  _382
REMARK  159  A    between atoms: _385  and  _387
REMARK  160  A    between atoms: _387  and  _388
REMARK  161  A    between atoms: _391  and  _393
REMARK  162  A    between atoms: _393  and  _394
REMARK  163  A    between atoms: _393  and  _396
REMARK  164  A    between atoms: _396  and  _397
REMARK  165  A    between atoms: _397  and  _511
REMARK  166  A    between atoms: _398  and  _400
REMARK  167  A    between atoms: _400  and  _401
REMARK  168  A    between atoms: _400  and  _403
REMARK  169  A    between atoms: _403  and  _404
REMARK  170  A    between atoms: _404  and  _405
REMARK  171  A    between atoms: _405  and  _406
REMARK  172  A    between atoms: _406  and  _407
REMARK  173  A    between atoms: _411  and  _413
REMARK  174  A    between atoms: _413  and  _414
REMARK  175  A    between atoms: _416  and  _418
REMARK  176  A    between atoms: _418  and  _419
REMARK  177  A    between atoms: _418  and  _421
REMARK  178  A    between atoms: _421  and  _422
REMARK  179  A    between atoms: _425  and  _427
REMARK  180  A    between atoms: _427  and  _428
REMARK  181  A    between atoms: _427  and  _430
REMARK  182  A    between atoms: _430  and  _431
REMARK  183  A    between atoms: _433  and  _435
REMARK  184  A    between atoms: _435  and  _436
REMARK  185  A    between atoms: _438  and  _440
REMARK  186  A    between atoms: _440  and  _441
REMARK  187  A    between atoms: _443  and  _445
REMARK  188  A    between atoms: _445  and  _446
REMARK  189  A    between atoms: _445  and  _448
REMARK  190  A    between atoms: _448  and  _449
REMARK  191  A    between atoms: _452  and  _454
REMARK  192  A    between atoms: _454  and  _455
REMARK  193  A    between atoms: _454  and  _457
REMARK  194  A    between atoms: _457  and  _458
REMARK  195  A    between atoms: _461  and  _463
REMARK  196  A    between atoms: _463  and  _464
REMARK  197  A    between atoms: _463  and  _466
REMARK  198  A    between atoms: _466  and  _467
REMARK  199  A    between atoms: _469  and  _471
REMARK  200  A    between atoms: _471  and  _472
REMARK  201  A    between atoms: _471  and  _474
REMARK  202  A    between atoms: _474  and  _475
REMARK  203  A    between atoms: _485  and  _487
REMARK  204  A    between atoms: _487  and  _488
REMARK  205  A    between atoms: _490  and  _492
REMARK  206  A    between atoms: _492  and  _493
REMARK  207  A    between atoms: _492  and  _495
REMARK  208  A    between atoms: _495  and  _496
REMARK  209  A    between atoms: _496  and  _497
REMARK  210  A    between atoms: _500  and  _502
REMARK  211  A    between atoms: _502  and  _503
REMARK  212  A    between atoms: _505  and  _507
REMARK  213  A    between atoms: _507  and  _508
REMARK  214  A    between atoms: _507  and  _510
REMARK  215  A    between atoms: _510  and  _511
REMARK  216  A    between atoms: _512  and  _514
REMARK  217  A    between atoms: _514  and  _515
REMARK  218  A    between atoms: _518  and  _520
REMARK  219  A    between atoms: _520  and  _521
REMARK  220  A    between atoms: _520  and  _523
REMARK  221  A    between atoms: _523  and  _524
REMARK  222  A    between atoms: _524  and  _525
REMARK  223  A    between atoms: _530  and  _532
REMARK  224  A    between atoms: _532  and  _533
REMARK  225  A    between atoms: _532  and  _535
REMARK  226  A    between atoms: _535  and  _536
REMARK  227  A    between atoms: _536  and  _537
REMARK  228  A    between atoms: _537  and  _538
REMARK  229  A    between atoms: _548  and  _549
REMARK  230  A    between atoms: _554  and  _556
REMARK  231  A    between atoms: _556  and  _557
REMARK  232  A    between atoms: _559  and  _561
REMARK  233  A    between atoms: _561  and  _562
REMARK  234  A    between atoms: _561  and  _564
REMARK  235  A    between atoms: _567  and  _569
REMARK  236  A    between atoms: _569  and  _570
REMARK  237  A    between atoms: _569  and  _572
REMARK  238  A    between atoms: _572  and  _573
REMARK  239  A    between atoms: _578  and  _579
REMARK  240  A    between atoms: _581  and  _583
REMARK  241  A    between atoms: _583  and  _584
REMARK  242  A    between atoms: _583  and  _586
REMARK  243  A    between atoms: _586  and  _587
REMARK                            x       y       z     vdW  Elec       q    Type
REMARK                         _______ _______ _______ _____ _____    ______ ____
ROOT
ATOM      1  CA  TYR A   6      40.268 -22.901  35.768  0.00  0.00    +0.160 C 
ENDROOT
BRANCH   1   2
ATOM      2  C   TYR A   6      39.918 -22.307  37.119  0.00  0.00    +0.242 C 
ATOM      3  O   TYR A   6      40.399 -22.769  38.147  0.00  0.00    -0.273 OA
ATOM      4  N   GLY A   7      38.993 -21.370  37.104  0.00  0.00    -0.296 N 
ATOM      5  H   GLY A   7      38.688 -20.981  36.189  0.00  0.00    +0.150 HD
BRANCH   4   6
ATOM      6  CA  GLY A   7      38.380 -20.858  38.328  0.00  0.00    +0.163 C 
BRANCH   6   7
ATOM      7  C   GLY A   7      37.163 -21.717  38.650  0.00  0.00    +0.229 C 
ATOM      8  O   GLY A   7      36.766 -22.591  37.869  0.00  0.00    -0.286 OA
ENDBRANCH   6   7
ENDBRANCH   4   6
ENDBRANCH   1   2
BRANCH   1  10
ATOM      9  C   PHE A   5      42.280 -23.905  34.796  0.00  0.00    +0.241 C 
ATOM     10  N   TYR A   6      41.485 -23.702  35.853  0.00  0.00    -0.296 N 
ATOM     11  H   TYR A   6      41.743 -24.129  36.765  0.00  0.00    +0.150 HD
ATOM     12  O   PHE A   5      42.096 -23.348  33.700  0.00  0.00    -0.273 OA
BRANCH   9  13
ATOM     13  CA  PHE A   5      43.442 -24.892  35.002  0.00  0.00    +0.149 C 
BRANCH  13  15
ATOM     14  C   CYS A   4      45.507 -24.081  36.102  0.00  0.00    +0.241 C 
ATOM     15  N   PHE A   5      44.250 -24.551  36.169  0.00  0.00    -0.297 N 
ATOM     16  H   PHE A   5      43.827 -24.680  37.110  0.00  0.00    +0.150 HD
ATOM     17  O   CYS A   4      46.133 -23.939  35.035  0.00  0.00    -0.273 OA
BRANCH  14  18
ATOM     18  CA  CYS A   4      46.196 -23.728  37.450  0.00  0.00    +0.155 C 
BRANCH  18  20
ATOM     19  C   HIS A   3      47.826 -25.572  37.255  0.00  0.00    +0.241 C 
ATOM     20  N   CYS A   4      47.546 -24.268  37.377  0.00  0.00    -0.297 N 
ATOM     21  H   CYS A   4      48.342 -23.600  37.422  0.00  0.00    +0.150 HD
ATOM     22  O   HIS A   3      46.972 -26.461  37.250  0.00  0.00    -0.273 OA
BRANCH  19  23
ATOM     23  CA  HIS A   3      49.275 -25.921  37.023  0.00  0.00    +0.149 C 
BRANCH  23  26
ATOM     24  C   ALA A   2      50.732 -27.765  37.760  0.00  0.00    +0.241 C 
ATOM     25  O   ALA A   2      51.757 -27.075  37.751  0.00  0.00    -0.273 OA
ATOM     26  N   HIS A   3      49.514 -27.305  37.403  0.00  0.00    -0.297 N 
ATOM     27  H   HIS A   3      48.713 -27.968  37.399  0.00  0.00    +0.150 HD
BRANCH  24  28
ATOM     28  CA  ALA A   2      50.777 -29.229  38.154  0.00  0.00    +0.149 C 
BRANCH  28  30
ATOM     29  C   ALA A   1      51.546 -30.315  36.130  0.00  0.00    +0.241 C 
ATOM     30  N   ALA A   2      51.747 -30.010  37.415  0.00  0.00    -0.297 N 
ATOM     31  H   ALA A   2      52.612 -30.338  37.891  0.00  0.00    +0.150 HD
ATOM     32  O   ALA A   1      50.558 -29.933  35.497  0.00  0.00    -0.274 OA
BRANCH  29  33
ATOM     33  CA  ALA A   1      52.621 -31.171  35.441  0.00  0.00    +0.172 C 
BRANCH  33  34
ATOM     34  N   ALA A   1      52.015 -31.857  34.286  0.00  0.00    -0.236 NA
ATOM     35  H   ALA A   1      51.461 -31.274  33.627  0.00  0.00    +0.142 HD
ENDBRANCH  33  34
BRANCH  33  36
ATOM     36  CB  ALA A   1      53.809 -30.273  35.021  0.00  0.00    +0.135 C 
ATOM     37  CG2 ALA A   1      55.018 -31.067  34.561  0.00  0.00    +0.034 C 
BRANCH  36  38
ATOM     38  OG1 ALA A   1      53.379 -29.370  34.000  0.00  0.00    -0.383 OA
ATOM     39  HG1 ALA A   1      54.138 -28.794  33.729  0.00  0.00    +0.210 HD
ENDBRANCH  36  38
ENDBRANCH  33  36
ENDBRANCH  29  33
ENDBRANCH  28  30
BRANCH  28  40
ATOM     40  CB  ALA A   2      50.860 -29.428  39.670  0.00  0.00    +0.039 C 
BRANCH  40  41
ATOM     41  CG  ALA A   2      49.547 -28.986  40.341  0.00  0.00    +0.087 C 
BRANCH  41  42
ATOM     42  CD  ALA A   2      49.549 -29.030  41.840  0.00  0.00    +0.219 C 
ATOM     43  OE1 ALA A   2      50.033 -29.981  42.458  0.00  0.00    -0.275 OA
ATOM     44  NE2 ALA A   2      48.897 -28.051  42.455  0.00  0.00    -0.329 N 
ATOM     45 HE21 ALA A   2      48.782 -28.072  43.488  0.00  0.00    +0.145 HD
ATOM     46 HE22 ALA A   2      48.501 -27.263  41.903  0.00  0.00    +0.145 HD
ENDBRANCH  41  42
ENDBRANCH  40  41
ENDBRANCH  28  40
ENDBRANCH  24  28
ENDBRANCH  23  26
BRANCH  23  47
ATOM     47  CB  HIS A   3      49.642 -25.678  35.539  0.00  0.00    +0.033 C 
BRANCH  47  48
ATOM     48  CG  HIS A   3      48.984 -26.657  34.540  0.00  0.00    +0.045 C 
BRANCH  48  49
ATOM     49  CD  HIS A   3      48.918 -26.178  33.089  0.00  0.00    +0.174 C 
BRANCH  49  50
ATOM     50  NE  HIS A   3      50.098 -25.411  32.678  0.00  0.00    -0.265 N 
ATOM     51  HE  HIS A   3      50.932 -25.439  33.299  0.00  0.00    +0.259 HD
ATOM     52  CZ  HIS A   3      50.180 -24.681  31.568  0.00  0.00    +0.342 C 
ATOM     53  NH2 HIS A   3      51.286 -24.001  31.294  0.00  0.00    -0.292 N 
ATOM     54 HH21 HIS A   3      52.094 -24.037  31.948  0.00  0.00    +0.255 HD
ATOM     55 HH22 HIS A   3      51.345 -23.432  30.425  0.00  0.00    +0.255 HD
ATOM     56  NH1 HIS A   3      49.157 -24.626  30.722  0.00  0.00    -0.292 N 
ATOM     57 HH11 HIS A   3      48.285 -25.155  30.925  0.00  0.00    +0.255 HD
ATOM     58 HH12 HIS A   3      49.228 -24.054  29.857  0.00  0.00    +0.255 HD
ENDBRANCH  49  50
ENDBRANCH  48  49
ENDBRANCH  47  48
ENDBRANCH  23  47
ENDBRANCH  19  23
ENDBRANCH  18  20
BRANCH  18  59
ATOM     59  CB  CYS A   4      46.275 -22.202  37.601  0.00  0.00    +0.076 C 
BRANCH  59  60
ATOM     60  CG  CYS A   4      44.976 -21.493  37.340  0.00  0.00    +0.082 A 
ATOM     61  ND1 CYS A   4      44.039 -21.307  38.352  0.00  0.00    -0.227 NA
ATOM     62  CE1 CYS A   4      43.035 -20.648  37.798  0.00  0.00    +0.199 A 
ATOM     63  NE2 CYS A   4      43.267 -20.390  36.502  0.00  0.00    -0.221 NA
ATOM     64  CD2 CYS A   4      44.517 -20.908  36.201  0.00  0.00    +0.115 A 
ENDBRANCH  59  60
ENDBRANCH  18  59
ENDBRANCH  14  18
ENDBRANCH  13  15
BRANCH  13  65
ATOM     65  CB  PHE A   5      42.887 -26.333  35.135  0.00  0.00    +0.029 C 
BRANCH  65  66
ATOM     66  CG  PHE A   5      41.961 -26.825  34.006  0.00  0.00    +0.002 C 
ATOM     67  CD2 PHE A   5      41.241 -28.156  34.388  0.00  0.00    +0.000 C 
ATOM     68  CD1 PHE A   5      42.705 -26.870  32.651  0.00  0.00    +0.000 C 
ENDBRANCH  65  66
ENDBRANCH  13  65
ENDBRANCH   9  13
ENDBRANCH   1  10
BRANCH   1  69
ATOM     69  CB  TYR A   6      39.125 -23.797  35.270  0.00  0.00    +0.098 C 
BRANCH  69  70
ATOM     70  SG  TYR A   6      38.958 -23.857  33.462  0.00  0.00    -0.080 S 
BRANCH  70  71
ATOM     71  SG  CYS A   4      37.040 -24.460  33.163  0.00  0.00    -0.080 S 
BRANCH  71  72
ATOM     72  CB  CYS A   4      37.252 -26.240  32.963  0.00  0.00    +0.098 C 
BRANCH  72  73
ATOM     73  CA  CYS A   4      37.435 -26.677  31.508  0.00  0.00    +0.160 C 
BRANCH  73  74
ATOM     74  N   CYS A   4      36.177 -26.487  30.763  0.00  0.00    -0.296 N 
ATOM     75  H   CYS A   4      35.345 -26.135  31.278  0.00  0.00    +0.150 HD
ATOM     76  C   HIS A   3      36.053 -26.746  29.455  0.00  0.00    +0.241 C 
ATOM     77  O   HIS A   3      37.007 -27.113  28.751  0.00  0.00    -0.273 OA
BRANCH  76  78
ATOM     78  CA  HIS A   3      34.658 -26.530  28.821  0.00  0.00    +0.155 C 
BRANCH  78  79
ATOM     79  N   HIS A   3      33.533 -26.531  29.798  0.00  0.00    -0.297 N 
ATOM     80  C   ALA A   2      33.259 -27.631  30.544  0.00  0.00    +0.241 C 
ATOM     81  O   ALA A   2      33.955 -28.642  30.501  0.00  0.00    -0.273 OA
ATOM     82  H   HIS A   3      32.950 -25.677  29.910  0.00  0.00    +0.150 HD
BRANCH  80  83
ATOM     83  CA  ALA A   2      32.047 -27.608  31.472  0.00  0.00    +0.149 C 
ATOM     84  CB  ALA A   2      30.793 -27.975  30.682  0.00  0.00    +0.031 C 
BRANCH  83  85
ATOM     85  N   ALA A   2      31.866 -26.313  32.110  0.00  0.00    -0.297 N 
ATOM     86  C   ALA A   1      32.791 -25.765  32.898  0.00  0.00    +0.238 C 
ATOM     87  O   ALA A   1      33.858 -26.317  33.166  0.00  0.00    -0.274 OA
ATOM     88  H   ALA A   2      30.980 -25.794  31.945  0.00  0.00    +0.150 HD
BRANCH  86  89
ATOM     89  CA  ALA A   1      32.496 -24.367  33.429  0.00  0.00    +0.145 C 
ATOM     90  CB  ALA A   1      33.231 -23.308  32.579  0.00  0.00    +0.028 C 
BRANCH  89  91
ATOM     91  N   ALA A   1      32.885 -24.249  34.834  0.00  0.00    -0.238 NA
ATOM     92  H   ALA A   1      33.872 -24.014  35.062  0.00  0.00    +0.142 HD
ENDBRANCH  89  91
ENDBRANCH  86  89
ENDBRANCH  83  85
ENDBRANCH  80  83
ENDBRANCH  78  79
BRANCH  78  93
ATOM     93  CB  HIS A   3      34.628 -25.299  27.881  0.00  0.00    +0.076 C 
BRANCH  93  94
ATOM     94  CG  HIS A   3      35.086 -24.049  28.570  0.00  0.00    +0.082 A 
ATOM     95  ND1 HIS A   3      34.188 -23.100  29.009  0.00  0.00    -0.227 NA
ATOM     96  CE1 HIS A   3      34.908 -22.158  29.587  0.00  0.00    +0.199 A 
ATOM     97  NE2 HIS A   3      36.200 -22.476  29.603  0.00  0.00    -0.221 NA
ATOM     98  CD2 HIS A   3      36.331 -23.679  28.944  0.00  0.00    +0.115 A 
ENDBRANCH  93  94
ENDBRANCH  78  93
ENDBRANCH  76  78
ENDBRANCH  73  74
BRANCH  73  99
ATOM     99  C   CYS A   4      37.926 -28.113  31.452  0.00  0.00    +0.242 C 
ATOM    100  O   CYS A   4      39.114 -28.354  31.645  0.00  0.00    -0.273 OA
ATOM    101  N   PHE A   5      36.995 -29.075  31.262  0.00  0.00    -0.297 N 
ATOM    102  H   PHE A   5      36.012 -28.782  31.090  0.00  0.00    +0.150 HD
BRANCH 101 103
ATOM    103  CA  PHE A   5      37.298 -30.510  31.285  0.00  0.00    +0.153 C 
BRANCH 103 104
ATOM    104  C   PHE A   5      37.589 -31.143  29.940  0.00  0.00    +0.241 C 
ATOM    105  O   PHE A   5      37.734 -32.373  29.852  0.00  0.00    -0.273 OA
ATOM    106  N   TYR A   6      37.754 -30.307  28.893  0.00  0.00    -0.298 N 
ATOM    107  H   TYR A   6      37.636 -29.282  29.025  0.00  0.00    +0.150 HD
BRANCH 106 108
ATOM    108  CA  TYR A   6      38.098 -30.837  27.571  0.00  0.00    +0.141 C 
BRANCH 108 109
ATOM    109  C   TYR A   6      39.389 -31.680  27.709  0.00  0.00    +0.227 C 
ATOM    110  O   TYR A   6      40.381 -31.209  28.270  0.00  0.00    -0.286 OA
ENDBRANCH 108 109
BRANCH 108 111
ATOM    111  CB  TYR A   6      38.264 -29.694  26.551  0.00  0.00    +0.054 C 
BRANCH 111 112
ATOM    112  CG  TYR A   6      38.623 -30.216  25.179  0.00  0.00    -0.020 A 
ATOM    113  CD2 TYR A   6      39.956 -30.326  24.779  0.00  0.00    -0.001 A 
ATOM    114  CE2 TYR A   6      40.297 -30.868  23.536  0.00  0.00    +0.036 A 
ATOM    115  CZ  TYR A   6      39.294 -31.327  22.692  0.00  0.00    +0.134 A 
ATOM    116  CE1 TYR A   6      37.965 -31.252  23.083  0.00  0.00    +0.036 A 
ATOM    117  CD1 TYR A   6      37.638 -30.690  24.314  0.00  0.00    -0.001 A 
BRANCH 115 118
ATOM    118  OH  TYR A   6      39.593 -31.857  21.463  0.00  0.00    -0.506 OA
ATOM    119  HH  TYR A   6      40.177 -32.648  21.579  0.00  0.00    +0.292 HD
ENDBRANCH 115 118
ENDBRANCH 111 112
ENDBRANCH 108 111
ENDBRANCH 106 108
ENDBRANCH 103 104
BRANCH 103 120
ATOM    120  CB  PHE A   5      36.242 -31.266  32.113  0.00  0.00    +0.055 C 
BRANCH 120 121
ATOM    121  CG  PHE A   5      36.109 -30.584  33.460  0.00  0.00    -0.020 A 
ATOM    122  CD2 PHE A   5      37.059 -30.789  34.457  0.00  0.00    -0.004 A 
ATOM    123  CE2 PHE A   5      37.007 -30.069  35.659  0.00  0.00    -0.000 A 
ATOM    124  CZ  PHE A   5      35.988 -29.163  35.874  0.00  0.00    -0.000 A 
ATOM    125  CE1 PHE A   5      35.035 -28.945  34.893  0.00  0.00    -0.000 A 
ATOM    126  CD1 PHE A   5      35.097 -29.650  33.690  0.00  0.00    -0.004 A 
ENDBRANCH 120 121
ENDBRANCH 103 120
ENDBRANCH 101 103
ENDBRANCH  73  99
ENDBRANCH  72  73
ENDBRANCH  71  72
ENDBRANCH  70  71
ENDBRANCH  69  70
ENDBRANCH   1  69
TORSDOF 51
REMARK  Name = ../refined-set-2016/4x6o/4x6o_pocket.pdb
REMARK  243 active torsions:
REMARK  status: ('A' for Active; 'I' for Inactive)
REMARK    1  A    between atoms: _1  and  _5
REMARK    2  A    between atoms: _5  and  _6
REMARK    3  A    between atoms: _5  and  _8
REMARK    4  A    between atoms: _8  and  _9
REMARK    5  A    between atoms: _12  and  _14
REMARK    6  A    between atoms: _14  and  _15
REMARK    7  A    between atoms: _14  and  _17
REMARK    8  A    between atoms: _20  and  _22
REMARK    9  A    between atoms: _22  and  _23
REMARK   10  A    between atoms: _22  and  _25
REMARK   11  A    between atoms: _25  and  _26
REMARK   12  A    between atoms: _29  and  _31
REMARK   13  A    between atoms: _31  and  _32
REMARK   14  A    between atoms: _31  and  _34
REMARK   15  A    between atoms: _34  and  _35
REMARK   16  A    between atoms: _38  and  _40
REMARK   17  A    between atoms: _40  and  _41
REMARK   18  A    between atoms: _40  and  _43
REMARK   19  A    between atoms: _43  and  _44
REMARK   20  A    between atoms: _49  and  _51
REMARK   21  A    between atoms: _51  and  _52
REMARK   22  A    between atoms: _51  and  _54
REMARK   23  A    between atoms: _54  and  _55
REMARK   24  A    between atoms: _58  and  _60
REMARK   25  A    between atoms: _60  and  _61
REMARK   26  A    between atoms: _60  and  _63
REMARK   27  A    between atoms: _63  and  _64
REMARK   28  A    between atoms: _67  and  _69
REMARK   29  A    between atoms: _69  and  _70
REMARK   30  A    between atoms: _69  and  _72
REMARK   31  A    between atoms: _72  and  _73
REMARK   32  A    between atoms: _73  and  _74
REMARK   33  A    between atoms: _79  and  _81
REMARK   34  A    between atoms: _81  and  _82
REMARK   35  A    between atoms: _81  and  _84
REMARK   36  A    between atoms: _84  and  _85
REMARK   37  A    between atoms: _85  and  _86
REMARK   38  A    between atoms: _86  and  _87
REMARK   39  A    between atoms: _96  and  _98
REMARK   40  A    between atoms: _98  and  _99
REMARK   41  A    between atoms: _98  and  _101
REMARK   42  A    between atoms: _101  and  _102
REMARK   43  A    between atoms: _107  and  _109
REMARK   44  A    between atoms: _109  and  _110
REMARK   45  A    between atoms: _109  and  _112
REMARK   46  A    between atoms: _112  and  _113
REMARK   47  A    between atoms: _116  and  _118
REMARK   48  A    between atoms: _118  and  _119
REMARK   49  A    between atoms: _118  and  _121
REMARK   50  A    between atoms: _121  and  _122
REMARK   51  A    between atoms: _122  and  _157
REMARK   52  A    between atoms: _123  and  _125
REMARK   53  A    between atoms: _125  and  _126
REMARK   54  A    between atoms: _128  and  _130
REMARK   55  A    between atoms: _130  and  _131
REMARK   56  A    between atoms: _134  and  _136
REMARK   57  A    between atoms: _136  and  _137
REMARK   58  A    between atoms: _140  and  _142
REMARK   59  A    between atoms: _142  and  _143
REMARK   60  A    between atoms: _142  and  _145
REMARK   61  A    between atoms: _145  and  _146
REMARK   62  A    between atoms: _151  and  _153
REMARK   63  A    between atoms: _153  and  _154
REMARK   64  A    between atoms: _153  and  _156
REMARK   65  A    between atoms: _156  and  _157
REMARK   66  A    between atoms: _158  and  _160
REMARK   67  A    between atoms: _160  and  _161
REMARK   68  A    between atoms: _160  and  _163
REMARK   69  A    between atoms: _163  and  _164
REMARK   70  A    between atoms: _170  and  _172
REMARK   71  A    between atoms: _172  and  _173
REMARK   72  A    between atoms: _172  and  _175
REMARK   73  A    between atoms: _175  and  _176
REMARK   74  A    between atoms: _181  and  _182
REMARK   75  A    between atoms: _184  and  _186
REMARK   76  A    between atoms: _186  and  _187
REMARK   77  A    between atoms: _186  and  _189
REMARK   78  A    between atoms: _192  and  _194
REMARK   79  A    between atoms: _194  and  _195
REMARK   80  A    between atoms: _194  and  _197
REMARK   81  A    between atoms: _197  and  _198
REMARK   82  A    between atoms: _198  and  _199
REMARK   83  A    between atoms: _204  and  _206
REMARK   84  A    between atoms: _206  and  _207
REMARK   85  A    between atoms: _210  and  _212
REMARK   86  A    between atoms: _212  and  _213
REMARK   87  A    between atoms: _212  and  _215
REMARK   88  A    between atoms: _215  and  _216
REMARK   89  A    between atoms: _219  and  _221
REMARK   90  A    between atoms: _221  and  _222
REMARK   91  A    between atoms: _221  and  _224
REMARK   92  A    between atoms: _227  and  _229
REMARK   93  A    between atoms: _229  and  _230
REMARK   94  A    between atoms: _229  and  _232
REMARK   95  A    between atoms: _232  and  _233
REMARK   96  A    between atoms: _243  and  _245
REMARK   97  A    between atoms: _245  and  _246
REMARK   98  A    between atoms: _248  and  _250
REMARK   99  A    between atoms: _250  and  _251
REMARK  100  A    between atoms: _250  and  _253
REMARK  101  A    between atoms: _253  and  _254
REMARK  102  A    between atoms: _259  and  _260
REMARK  103  A    between atoms: _262  and  _264
REMARK  104  A    between atoms: _264  and  _265
REMARK  105  A    between atoms: _264  and  _267
REMARK  106  A    between atoms: _267  and  _268
REMARK  107  A    between atoms: _268  and  _269
REMARK  108  A    between atoms: _269  and  _270
REMARK  109  A    between atoms: _270  and  _271
REMARK  110  A    between atoms: _275  and  _277
REMARK  111  A    between atoms: _277  and  _278
REMARK  112  A    between atoms: _277  and  _280
REMARK  113  A    between atoms: _280  and  _281
REMARK  114  A    between atoms: _284  and  _286
REMARK  115  A    between atoms: _286  and  _287
REMARK  116  A    between atoms: _286  and  _289
REMARK  117  A    between atoms: _289  and  _290
REMARK  118  A    between atoms: _293  and  _295
REMARK  119  A    between atoms: _295  and  _296
REMARK  120  A    between atoms: _295  and  _298
REMARK  121  A    between atoms: _298  and  _299
REMARK  122  A    between atoms: _299  and  _300
REMARK  123  A    between atoms: _300  and  _301
REMARK  124  A    between atoms: _301  and  _302
REMARK  125  A    between atoms: _306  and  _308
REMARK  126  A    between atoms: _308  and  _309
REMARK  127  A    between atoms: _308  and  _311
REMARK  128  A    between atoms: _311  and  _312
REMARK  129  A    between atoms: _315  and  _317
REMARK  130  A    between atoms: _317  and  _318
REMARK  131  A    between atoms: _317  and  _320
REMARK  132  A    between atoms: _320  and  _321
REMARK  133  A    between atoms: _321  and  _322
REMARK  134  A    between atoms: _327  and  _329
REMARK  135  A    between atoms: _329  and  _330
REMARK  136  A    between atoms: _329  and  _332
REMARK  137  A    between atoms: _332  and  _333
REMARK  138  A    between atoms: _338  and  _339
REMARK  139  A    between atoms: _341  and  _343
REMARK  140  A    between atoms: _343  and  _344
REMARK  141  A    between atoms: _343  and  _346
REMARK  142  A    between atoms: _346  and  _347
REMARK  143  A    between atoms: _350  and  _352
REMARK  144  A    between atoms: _352  and  _353
REMARK  145  A    between atoms: _352  and  _355
REMARK  146  A    between atoms: _357  and  _359
REMARK  147  A    between atoms: _359  and  _360
REMARK  148  A    between atoms: _363  and  _365
REMARK  149  A    between atoms: _365  and  _366
REMARK  150  A    between atoms: _365  and  _368
REMARK  151  A    between atoms: _368  and  _369
REMARK  152  A    between atoms: _369  and  _370
REMARK  153  A    between atoms: _370  and  _371
REMARK  154  A    between atoms: _371  and  _372
REMARK  155  A    between atoms: _376  and  _378
REMARK  156  A    between atoms: _378  and  _379
REMARK  157  A    between atoms: _378  and  _381
REMARK  158  A    between atoms: _381  and  _382
REMARK  159  A    between atoms: _385  and  _387
REMARK  160  A    between atoms: _387  and  _388
REMARK  161  A    between atoms: _391  and  _393
REMARK  162  A    between atoms: _393  and  _394
REMARK  163  A    between atoms: _393  and  _396
REMARK  164  A    between atoms: _396  and  _397
REMARK  165  A    between atoms: _397  and  _511
REMARK  166  A    between atoms: _398  and  _400
REMARK  167  A    between atoms: _400  and  _401
REMARK  168  A    between atoms: _400  and  _403
REMARK  169  A    between atoms: _403  and  _404
REMARK  170  A    between atoms: _404  and  _405
REMARK  171  A    between atoms: _405  and  _406
REMARK  172  A    between atoms: _406  and  _407
REMARK  173  A    between atoms: _411  and  _413
REMARK  174  A    between atoms: _413  and  _414
REMARK  175  A    between atoms: _416  and  _418
REMARK  176  A    between atoms: _418  and  _419
REMARK  177  A    between atoms: _418  and  _421
REMARK  178  A    between atoms: _421  and  _422
REMARK  179  A    between atoms: _425  and  _427
REMARK  180  A    between atoms: _427  and  _428
REMARK  181  A    between atoms: _427  and  _430
REMARK  182  A    between atoms: _430  and  _431
REMARK  183  A    between atoms: _433  and  _435
REMARK  184  A    between atoms: _435  and  _436
REMARK  185  A    between atoms: _438  and  _440
REMARK  186  A    between atoms: _440  and  _441
REMARK  187  A    between atoms: _443  and  _445
REMARK  188  A    between atoms: _445  and  _446
REMARK  189  A    between atoms: _445  and  _448
REMARK  190  A    between atoms: _448  and  _449
REMARK  191  A    between atoms: _452  and  _454
REMARK  192  A    between atoms: _454  and  _455
REMARK  193  A    between atoms: _454  and  _457
REMARK  194  A    between atoms: _457  and  _458
REMARK  195  A    between atoms: _461  and  _463
REMARK  196  A    between atoms: _463  and  _464
REMARK  197  A    between atoms: _463  and  _466
REMARK  198  A    between atoms: _466  and  _467
REMARK  199  A    between atoms: _469  and  _471
REMARK  200  A    between atoms: _471  and  _472
REMARK  201  A    between atoms: _471  and  _474
REMARK  202  A    between atoms: _474  and  _475
REMARK  203  A    between atoms: _485  and  _487
REMARK  204  A    between atoms: _487  and  _488
REMARK  205  A    between atoms: _490  and  _492
REMARK  206  A    between atoms: _492  and  _493
REMARK  207  A    between atoms: _492  and  _495
REMARK  208  A    between atoms: _495  and  _496
REMARK  209  A    between atoms: _496  and  _497
REMARK  210  A    between atoms: _500  and  _502
REMARK  211  A    between atoms: _502  and  _503
REMARK  212  A    between atoms: _505  and  _507
REMARK  213  A    between atoms: _507  and  _508
REMARK  214  A    between atoms: _507  and  _510
REMARK  215  A    between atoms: _510  and  _511
REMARK  216  A    between atoms: _512  and  _514
REMARK  217  A    between atoms: _514  and  _515
REMARK  218  A    between atoms: _518  and  _520
REMARK  219  A    between atoms: _520  and  _521
REMARK  220  A    between atoms: _520  and  _523
REMARK  221  A    between atoms: _523  and  _524
REMARK  222  A    between atoms: _524  and  _525
REMARK  223  A    between atoms: _530  and  _532
REMARK  224  A    between atoms: _532  and  _533
REMARK  225  A    between atoms: _532  and  _535
REMARK  226  A    between atoms: _535  and  _536
REMARK  227  A    between atoms: _536  and  _537
REMARK  228  A    between atoms: _537  and  _538
REMARK  229  A    between atoms: _548  and  _549
REMARK  230  A    between atoms: _554  and  _556
REMARK  231  A    between atoms: _556  and  _557
REMARK  232  A    between atoms: _559  and  _561
REMARK  233  A    between atoms: _561  and  _562
REMARK  234  A    between atoms: _561  and  _564
REMARK  235  A    between atoms: _567  and  _569
REMARK  236  A    between atoms: _569  and  _570
REMARK  237  A    between atoms: _569  and  _572
REMARK  238  A    between atoms: _572  and  _573
REMARK  239  A    between atoms: _578  and  _579
REMARK  240  A    between atoms: _581  and  _583
REMARK  241  A    between atoms: _583  and  _584
REMARK  242  A    between atoms: _583  and  _586
REMARK  243  A    between atoms: _586  and  _587
REMARK                            x       y       z     vdW  Elec       q    Type
REMARK                         _______ _______ _______ _____ _____    ______ ____
ROOT
ATOM      1  CA  VAL A   1      40.312 -34.362  31.280  0.00  0.00    +0.133 C 
ENDROOT
BRANCH   1   2
ATOM      2  CB  VAL A   1      39.814 -33.356  32.378  0.00  0.00    +0.023 C 
ATOM      3  CG2 VAL A   1      39.794 -33.999  33.773  0.00  0.00    +0.002 C 
ATOM      4  CG1 VAL A   1      40.646 -32.081  32.390  0.00  0.00    +0.002 C 
ENDBRANCH   1   2
BRANCH   1   5
ATOM      5  N   VAL A   1      40.115 -33.871  29.898  0.00  0.00    -0.239 NA
ATOM      6  H   VAL A   1      39.425 -33.109  29.736  0.00  0.00    +0.142 HD
ENDBRANCH   1   5
BRANCH   1   7
ATOM      7  C   VAL A   1      39.597 -35.718  31.335  0.00  0.00    +0.224 C 
ATOM      8  O   VAL A   1      38.375 -35.783  31.238  0.00  0.00    -0.287 OA
ENDBRANCH   1   7
TORSDOF 3
REMARK  Name = ../refined-set-2016/4x6o/4x6o_pocket.pdb
REMARK  243 active torsions:
REMARK  status: ('A' for Active; 'I' for Inactive)
REMARK    1  A    between atoms: _1  and  _5
REMARK    2  A    between atoms: _5  and  _6
REMARK    3  A    between atoms: _5  and  _8
REMARK    4  A    between atoms: _8  and  _9
REMARK    5  A    between atoms: _12  and  _14
REMARK    6  A    between atoms: _14  and  _15
REMARK    7  A    between atoms: _14  and  _17
REMARK    8  A    between atoms: _20  and  _22
REMARK    9  A    between atoms: _22  and  _23
REMARK   10  A    between atoms: _22  and  _25
REMARK   11  A    between atoms: _25  and  _26
REMARK   12  A    between atoms: _29  and  _31
REMARK   13  A    between atoms: _31  and  _32
REMARK   14  A    between atoms: _31  and  _34
REMARK   15  A    between atoms: _34  and  _35
REMARK   16  A    between atoms: _38  and  _40
REMARK   17  A    between atoms: _40  and  _41
REMARK   18  A    between atoms: _40  and  _43
REMARK   19  A    between atoms: _43  and  _44
REMARK   20  A    between atoms: _49  and  _51
REMARK   21  A    between atoms: _51  and  _52
REMARK   22  A    between atoms: _51  and  _54
REMARK   23  A    between atoms: _54  and  _55
REMARK   24  A    between atoms: _58  and  _60
REMARK   25  A    between atoms: _60  and  _61
REMARK   26  A    between atoms: _60  and  _63
REMARK   27  A    between atoms: _63  and  _64
REMARK   28  A    between atoms: _67  and  _69
REMARK   29  A    between atoms: _69  and  _70
REMARK   30  A    between atoms: _69  and  _72
REMARK   31  A    between atoms: _72  and  _73
REMARK   32  A    between atoms: _73  and  _74
REMARK   33  A    between atoms: _79  and  _81
REMARK   34  A    between atoms: _81  and  _82
REMARK   35  A    between atoms: _81  and  _84
REMARK   36  A    between atoms: _84  and  _85
REMARK   37  A    between atoms: _85  and  _86
REMARK   38  A    between atoms: _86  and  _87
REMARK   39  A    between atoms: _96  and  _98
REMARK   40  A    between atoms: _98  and  _99
REMARK   41  A    between atoms: _98  and  _101
REMARK   42  A    between atoms: _101  and  _102
REMARK   43  A    between atoms: _107  and  _109
REMARK   44  A    between atoms: _109  and  _110
REMARK   45  A    between atoms: _109  and  _112
REMARK   46  A    between atoms: _112  and  _113
REMARK   47  A    between atoms: _116  and  _118
REMARK   48  A    between atoms: _118  and  _119
REMARK   49  A    between atoms: _118  and  _121
REMARK   50  A    between atoms: _121  and  _122
REMARK   51  A    between atoms: _122  and  _157
REMARK   52  A    between atoms: _123  and  _125
REMARK   53  A    between atoms: _125  and  _126
REMARK   54  A    between atoms: _128  and  _130
REMARK   55  A    between atoms: _130  and  _131
REMARK   56  A    between atoms: _134  and  _136
REMARK   57  A    between atoms: _136  and  _137
REMARK   58  A    between atoms: _140  and  _142
REMARK   59  A    between atoms: _142  and  _143
REMARK   60  A    between atoms: _142  and  _145
REMARK   61  A    between atoms: _145  and  _146
REMARK   62  A    between atoms: _151  and  _153
REMARK   63  A    between atoms: _153  and  _154
REMARK   64  A    between atoms: _153  and  _156
REMARK   65  A    between atoms: _156  and  _157
REMARK   66  A    between atoms: _158  and  _160
REMARK   67  A    between atoms: _160  and  _161
REMARK   68  A    between atoms: _160  and  _163
REMARK   69  A    between atoms: _163  and  _164
REMARK   70  A    between atoms: _170  and  _172
REMARK   71  A    between atoms: _172  and  _173
REMARK   72  A    between atoms: _172  and  _175
REMARK   73  A    between atoms: _175  and  _176
REMARK   74  A    between atoms: _181  and  _182
REMARK   75  A    between atoms: _184  and  _186
REMARK   76  A    between atoms: _186  and  _187
REMARK   77  A    between atoms: _186  and  _189
REMARK   78  A    between atoms: _192  and  _194
REMARK   79  A    between atoms: _194  and  _195
REMARK   80  A    between atoms: _194  and  _197
REMARK   81  A    between atoms: _197  and  _198
REMARK   82  A    between atoms: _198  and  _199
REMARK   83  A    between atoms: _204  and  _206
REMARK   84  A    between atoms: _206  and  _207
REMARK   85  A    between atoms: _210  and  _212
REMARK   86  A    between atoms: _212  and  _213
REMARK   87  A    between atoms: _212  and  _215
REMARK   88  A    between atoms: _215  and  _216
REMARK   89  A    between atoms: _219  and  _221
REMARK   90  A    between atoms: _221  and  _222
REMARK   91  A    between atoms: _221  and  _224
REMARK   92  A    between atoms: _227  and  _229
REMARK   93  A    between atoms: _229  and  _230
REMARK   94  A    between atoms: _229  and  _232
REMARK   95  A    between atoms: _232  and  _233
REMARK   96  A    between atoms: _243  and  _245
REMARK   97  A    between atoms: _245  and  _246
REMARK   98  A    between atoms: _248  and  _250
REMARK   99  A    between atoms: _250  and  _251
REMARK  100  A    between atoms: _250  and  _253
REMARK  101  A    between atoms: _253  and  _254
REMARK  102  A    between atoms: _259  and  _260
REMARK  103  A    between atoms: _262  and  _264
REMARK  104  A    between atoms: _264  and  _265
REMARK  105  A    between atoms: _264  and  _267
REMARK  106  A    between atoms: _267  and  _268
REMARK  107  A    between atoms: _268  and  _269
REMARK  108  A    between atoms: _269  and  _270
REMARK  109  A    between atoms: _270  and  _271
REMARK  110  A    between atoms: _275  and  _277
REMARK  111  A    between atoms: _277  and  _278
REMARK  112  A    between atoms: _277  and  _280
REMARK  113  A    between atoms: _280  and  _281
REMARK  114  A    between atoms: _284  and  _286
REMARK  115  A    between atoms: _286  and  _287
REMARK  116  A    between atoms: _286  and  _289
REMARK  117  A    between atoms: _289  and  _290
REMARK  118  A    between atoms: _293  and  _295
REMARK  119  A    between atoms: _295  and  _296
REMARK  120  A    between atoms: _295  and  _298
REMARK  121  A    between atoms: _298  and  _299
REMARK  122  A    between atoms: _299  and  _300
REMARK  123  A    between atoms: _300  and  _301
REMARK  124  A    between atoms: _301  and  _302
REMARK  125  A    between atoms: _306  and  _308
REMARK  126  A    between atoms: _308  and  _309
REMARK  127  A    between atoms: _308  and  _311
REMARK  128  A    between atoms: _311  and  _312
REMARK  129  A    between atoms: _315  and  _317
REMARK  130  A    between atoms: _317  and  _318
REMARK  131  A    between atoms: _317  and  _320
REMARK  132  A    between atoms: _320  and  _321
REMARK  133  A    between atoms: _321  and  _322
REMARK  134  A    between atoms: _327  and  _329
REMARK  135  A    between atoms: _329  and  _330
REMARK  136  A    between atoms: _329  and  _332
REMARK  137  A    between atoms: _332  and  _333
REMARK  138  A    between atoms: _338  and  _339
REMARK  139  A    between atoms: _341  and  _343
REMARK  140  A    between atoms: _343  and  _344
REMARK  141  A    between atoms: _343  and  _346
REMARK  142  A    between atoms: _346  and  _347
REMARK  143  A    between atoms: _350  and  _352
REMARK  144  A    between atoms: _352  and  _353
REMARK  145  A    between atoms: _352  and  _355
REMARK  146  A    between atoms: _357  and  _359
REMARK  147  A    between atoms: _359  and  _360
REMARK  148  A    between atoms: _363  and  _365
REMARK  149  A    between atoms: _365  and  _366
REMARK  150  A    between atoms: _365  and  _368
REMARK  151  A    between atoms: _368  and  _369
REMARK  152  A    between atoms: _369  and  _370
REMARK  153  A    between atoms: _370  and  _371
REMARK  154  A    between atoms: _371  and  _372
REMARK  155  A    between atoms: _376  and  _378
REMARK  156  A    between atoms: _378  and  _379
REMARK  157  A    between atoms: _378  and  _381
REMARK  158  A    between atoms: _381  and  _382
REMARK  159  A    between atoms: _385  and  _387
REMARK  160  A    between atoms: _387  and  _388
REMARK  161  A    between atoms: _391  and  _393
REMARK  162  A    between atoms: _393  and  _394
REMARK  163  A    between atoms: _393  and  _396
REMARK  164  A    between atoms: _396  and  _397
REMARK  165  A    between atoms: _397  and  _511
REMARK  166  A    between atoms: _398  and  _400
REMARK  167  A    between atoms: _400  and  _401
REMARK  168  A    between atoms: _400  and  _403
REMARK  169  A    between atoms: _403  and  _404
REMARK  170  A    between atoms: _404  and  _405
REMARK  171  A    between atoms: _405  and  _406
REMARK  172  A    between atoms: _406  and  _407
REMARK  173  A    between atoms: _411  and  _413
REMARK  174  A    between atoms: _413  and  _414
REMARK  175  A    between atoms: _416  and  _418
REMARK  176  A    between atoms: _418  and  _419
REMARK  177  A    between atoms: _418  and  _421
REMARK  178  A    between atoms: _421  and  _422
REMARK  179  A    between atoms: _425  and  _427
REMARK  180  A    between atoms: _427  and  _428
REMARK  181  A    between atoms: _427  and  _430
REMARK  182  A    between atoms: _430  and  _431
REMARK  183  A    between atoms: _433  and  _435
REMARK  184  A    between atoms: _435  and  _436
REMARK  185  A    between atoms: _438  and  _440
REMARK  186  A    between atoms: _440  and  _441
REMARK  187  A    between atoms: _443  and  _445
REMARK  188  A    between atoms: _445  and  _446
REMARK  189  A    between atoms: _445  and  _448
REMARK  190  A    between atoms: _448  and  _449
REMARK  191  A    between atoms: _452  and  _454
REMARK  192  A    between atoms: _454  and  _455
REMARK  193  A    between atoms: _454  and  _457
REMARK  194  A    between atoms: _457  and  _458
REMARK  195  A    between atoms: _461  and  _463
REMARK  196  A    between atoms: _463  and  _464
REMARK  197  A    between atoms: _463  and  _466
REMARK  198  A    between atoms: _466  and  _467
REMARK  199  A    between atoms: _469  and  _471
REMARK  200  A    between atoms: _471  and  _472
REMARK  201  A    between atoms: _471  and  _474
REMARK  202  A    between atoms: _474  and  _475
REMARK  203  A    between atoms: _485  and  _487
REMARK  204  A    between atoms: _487  and  _488
REMARK  205  A    between atoms: _490  and  _492
REMARK  206  A    between atoms: _492  and  _493
REMARK  207  A    between atoms: _492  and  _495
REMARK  208  A    between atoms: _495  and  _496
REMARK  209  A    between atoms: _496  and  _497
REMARK  210  A    between atoms: _500  and  _502
REMARK  211  A    between atoms: _502  and  _503
REMARK  212  A    between atoms: _505  and  _507
REMARK  213  A    between atoms: _507  and  _508
REMARK  214  A    between atoms: _507  and  _510
REMARK  215  A    between atoms: _510  and  _511
REMARK  216  A    between atoms: _512  and  _514
REMARK  217  A    between atoms: _514  and  _515
REMARK  218  A    between atoms: _518  and  _520
REMARK  219  A    between atoms: _520  and  _521
REMARK  220  A    between atoms: _520  and  _523
REMARK  221  A    between atoms: _523  and  _524
REMARK  222  A    between atoms: _524  and  _525
REMARK  223  A    between atoms: _530  and  _532
REMARK  224  A    between atoms: _532  and  _533
REMARK  225  A    between atoms: _532  and  _535
REMARK  226  A    between atoms: _535  and  _536
REMARK  227  A    between atoms: _536  and  _537
REMARK  228  A    between atoms: _537  and  _538
REMARK  229  A    between atoms: _548  and  _549
REMARK  230  A    between atoms: _554  and  _556
REMARK  231  A    between atoms: _556  and  _557
REMARK  232  A    between atoms: _559  and  _561
REMARK  233  A    between atoms: _561  and  _562
REMARK  234  A    between atoms: _561  and  _564
REMARK  235  A    between atoms: _567  and  _569
REMARK  236  A    between atoms: _569  and  _570
REMARK  237  A    between atoms: _569  and  _572
REMARK  238  A    between atoms: _572  and  _573
REMARK  239  A    between atoms: _578  and  _579
REMARK  240  A    between atoms: _581  and  _583
REMARK  241  A    between atoms: _583  and  _584
REMARK  242  A    between atoms: _583  and  _586
REMARK  243  A    between atoms: _586  and  _587
REMARK                            x       y       z     vdW  Elec       q    Type
REMARK                         _______ _______ _______ _____ _____    ______ ____
ROOT
ATOM      1  CB  GLN A   1      49.327 -18.844  41.941  0.00  0.00    +0.035 C 
ENDROOT
BRANCH   1   2
ATOM      2  CA  GLN A   1      49.182 -18.797  43.477  0.00  0.00    +0.134 C 
BRANCH   2   3
ATOM      3  N   GLN A   1      48.838 -17.450  43.945  0.00  0.00    -0.239 NA
ATOM      4  H   GLN A   1      48.799 -16.665  43.264  0.00  0.00    +0.142 HD
ENDBRANCH   2   3
BRANCH   2   5
ATOM      5  C   GLN A   1      50.460 -19.317  44.158  0.00  0.00    +0.224 C 
ATOM      6  O   GLN A   1      50.609 -20.525  44.313  0.00  0.00    -0.287 OA
ENDBRANCH   2   5
ENDBRANCH   1   2
BRANCH   1   7
ATOM      7  CG  GLN A   1      48.001 -18.648  41.175  0.00  0.00    +0.087 C 
BRANCH   7   8
ATOM      8  CD  GLN A   1      47.137 -19.898  41.180  0.00  0.00    +0.219 C 
ATOM      9  OE1 GLN A   1      47.622 -21.025  41.317  0.00  0.00    -0.275 OA
ATOM     10  NE2 GLN A   1      45.845 -19.740  40.972  0.00  0.00    -0.329 N 
ATOM     11 HE21 GLN A   1      45.221 -20.570  40.922  0.00  0.00    +0.145 HD
ATOM     12 HE22 GLN A   1      45.450 -18.785  40.858  0.00  0.00    +0.145 HD
ENDBRANCH   7   8
ENDBRANCH   1   7
TORSDOF 5
REMARK  Name = ../refined-set-2016/4x6o/4x6o_pocket.pdb
REMARK  243 active torsions:
REMARK  status: ('A' for Active; 'I' for Inactive)
REMARK    1  A    between atoms: _1  and  _5
REMARK    2  A    between atoms: _5  and  _6
REMARK    3  A    between atoms: _5  and  _8
REMARK    4  A    between atoms: _8  and  _9
REMARK    5  A    between atoms: _12  and  _14
REMARK    6  A    between atoms: _14  and  _15
REMARK    7  A    between atoms: _14  and  _17
REMARK    8  A    between atoms: _20  and  _22
REMARK    9  A    between atoms: _22  and  _23
REMARK   10  A    between atoms: _22  and  _25
REMARK   11  A    between atoms: _25  and  _26
REMARK   12  A    between atoms: _29  and  _31
REMARK   13  A    between atoms: _31  and  _32
REMARK   14  A    between atoms: _31  and  _34
REMARK   15  A    between atoms: _34  and  _35
REMARK   16  A    between atoms: _38  and  _40
REMARK   17  A    between atoms: _40  and  _41
REMARK   18  A    between atoms: _40  and  _43
REMARK   19  A    between atoms: _43  and  _44
REMARK   20  A    between atoms: _49  and  _51
REMARK   21  A    between atoms: _51  and  _52
REMARK   22  A    between atoms: _51  and  _54
REMARK   23  A    between atoms: _54  and  _55
REMARK   24  A    between atoms: _58  and  _60
REMARK   25  A    between atoms: _60  and  _61
REMARK   26  A    between atoms: _60  and  _63
REMARK   27  A    between atoms: _63  and  _64
REMARK   28  A    between atoms: _67  and  _69
REMARK   29  A    between atoms: _69  and  _70
REMARK   30  A    between atoms: _69  and  _72
REMARK   31  A    between atoms: _72  and  _73
REMARK   32  A    between atoms: _73  and  _74
REMARK   33  A    between atoms: _79  and  _81
REMARK   34  A    between atoms: _81  and  _82
REMARK   35  A    between atoms: _81  and  _84
REMARK   36  A    between atoms: _84  and  _85
REMARK   37  A    between atoms: _85  and  _86
REMARK   38  A    between atoms: _86  and  _87
REMARK   39  A    between atoms: _96  and  _98
REMARK   40  A    between atoms: _98  and  _99
REMARK   41  A    between atoms: _98  and  _101
REMARK   42  A    between atoms: _101  and  _102
REMARK   43  A    between atoms: _107  and  _109
REMARK   44  A    between atoms: _109  and  _110
REMARK   45  A    between atoms: _109  and  _112
REMARK   46  A    between atoms: _112  and  _113
REMARK   47  A    between atoms: _116  and  _118
REMARK   48  A    between atoms: _118  and  _119
REMARK   49  A    between atoms: _118  and  _121
REMARK   50  A    between atoms: _121  and  _122
REMARK   51  A    between atoms: _122  and  _157
REMARK   52  A    between atoms: _123  and  _125
REMARK   53  A    between atoms: _125  and  _126
REMARK   54  A    between atoms: _128  and  _130
REMARK   55  A    between atoms: _130  and  _131
REMARK   56  A    between atoms: _134  and  _136
REMARK   57  A    between atoms: _136  and  _137
REMARK   58  A    between atoms: _140  and  _142
REMARK   59  A    between atoms: _142  and  _143
REMARK   60  A    between atoms: _142  and  _145
REMARK   61  A    between atoms: _145  and  _146
REMARK   62  A    between atoms: _151  and  _153
REMARK   63  A    between atoms: _153  and  _154
REMARK   64  A    between atoms: _153  and  _156
REMARK   65  A    between atoms: _156  and  _157
REMARK   66  A    between atoms: _158  and  _160
REMARK   67  A    between atoms: _160  and  _161
REMARK   68  A    between atoms: _160  and  _163
REMARK   69  A    between atoms: _163  and  _164
REMARK   70  A    between atoms: _170  and  _172
REMARK   71  A    between atoms: _172  and  _173
REMARK   72  A    between atoms: _172  and  _175
REMARK   73  A    between atoms: _175  and  _176
REMARK   74  A    between atoms: _181  and  _182
REMARK   75  A    between atoms: _184  and  _186
REMARK   76  A    between atoms: _186  and  _187
REMARK   77  A    between atoms: _186  and  _189
REMARK   78  A    between atoms: _192  and  _194
REMARK   79  A    between atoms: _194  and  _195
REMARK   80  A    between atoms: _194  and  _197
REMARK   81  A    between atoms: _197  and  _198
REMARK   82  A    between atoms: _198  and  _199
REMARK   83  A    between atoms: _204  and  _206
REMARK   84  A    between atoms: _206  and  _207
REMARK   85  A    between atoms: _210  and  _212
REMARK   86  A    between atoms: _212  and  _213
REMARK   87  A    between atoms: _212  and  _215
REMARK   88  A    between atoms: _215  and  _216
REMARK   89  A    between atoms: _219  and  _221
REMARK   90  A    between atoms: _221  and  _222
REMARK   91  A    between atoms: _221  and  _224
REMARK   92  A    between atoms: _227  and  _229
REMARK   93  A    between atoms: _229  and  _230
REMARK   94  A    between atoms: _229  and  _232
REMARK   95  A    between atoms: _232  and  _233
REMARK   96  A    between atoms: _243  and  _245
REMARK   97  A    between atoms: _245  and  _246
REMARK   98  A    between atoms: _248  and  _250
REMARK   99  A    between atoms: _250  and  _251
REMARK  100  A    between atoms: _250  and  _253
REMARK  101  A    between atoms: _253  and  _254
REMARK  102  A    between atoms: _259  and  _260
REMARK  103  A    between atoms: _262  and  _264
REMARK  104  A    between atoms: _264  and  _265
REMARK  105  A    between atoms: _264  and  _267
REMARK  106  A    between atoms: _267  and  _268
REMARK  107  A    between atoms: _268  and  _269
REMARK  108  A    between atoms: _269  and  _270
REMARK  109  A    between atoms: _270  and  _271
REMARK  110  A    between atoms: _275  and  _277
REMARK  111  A    between atoms: _277  and  _278
REMARK  112  A    between atoms: _277  and  _280
REMARK  113  A    between atoms: _280  and  _281
REMARK  114  A    between atoms: _284  and  _286
REMARK  115  A    between atoms: _286  and  _287
REMARK  116  A    between atoms: _286  and  _289
REMARK  117  A    between atoms: _289  and  _290
REMARK  118  A    between atoms: _293  and  _295
REMARK  119  A    between atoms: _295  and  _296
REMARK  120  A    between atoms: _295  and  _298
REMARK  121  A    between atoms: _298  and  _299
REMARK  122  A    between atoms: _299  and  _300
REMARK  123  A    between atoms: _300  and  _301
REMARK  124  A    between atoms: _301  and  _302
REMARK  125  A    between atoms: _306  and  _308
REMARK  126  A    between atoms: _308  and  _309
REMARK  127  A    between atoms: _308  and  _311
REMARK  128  A    between atoms: _311  and  _312
REMARK  129  A    between atoms: _315  and  _317
REMARK  130  A    between atoms: _317  and  _318
REMARK  131  A    between atoms: _317  and  _320
REMARK  132  A    between atoms: _320  and  _321
REMARK  133  A    between atoms: _321  and  _322
REMARK  134  A    between atoms: _327  and  _329
REMARK  135  A    between atoms: _329  and  _330
REMARK  136  A    between atoms: _329  and  _332
REMARK  137  A    between atoms: _332  and  _333
REMARK  138  A    between atoms: _338  and  _339
REMARK  139  A    between atoms: _341  and  _343
REMARK  140  A    between atoms: _343  and  _344
REMARK  141  A    between atoms: _343  and  _346
REMARK  142  A    between atoms: _346  and  _347
REMARK  143  A    between atoms: _350  and  _352
REMARK  144  A    between atoms: _352  and  _353
REMARK  145  A    between atoms: _352  and  _355
REMARK  146  A    between atoms: _357  and  _359
REMARK  147  A    between atoms: _359  and  _360
REMARK  148  A    between atoms: _363  and  _365
REMARK  149  A    between atoms: _365  and  _366
REMARK  150  A    between atoms: _365  and  _368
REMARK  151  A    between atoms: _368  and  _369
REMARK  152  A    between atoms: _369  and  _370
REMARK  153  A    between atoms: _370  and  _371
REMARK  154  A    between atoms: _371  and  _372
REMARK  155  A    between atoms: _376  and  _378
REMARK  156  A    between atoms: _378  and  _379
REMARK  157  A    between atoms: _378  and  _381
REMARK  158  A    between atoms: _381  and  _382
REMARK  159  A    between atoms: _385  and  _387
REMARK  160  A    between atoms: _387  and  _388
REMARK  161  A    between atoms: _391  and  _393
REMARK  162  A    between atoms: _393  and  _394
REMARK  163  A    between atoms: _393  and  _396
REMARK  164  A    between atoms: _396  and  _397
REMARK  165  A    between atoms: _397  and  _511
REMARK  166  A    between atoms: _398  and  _400
REMARK  167  A    between atoms: _400  and  _401
REMARK  168  A    between atoms: _400  and  _403
REMARK  169  A    between atoms: _403  and  _404
REMARK  170  A    between atoms: _404  and  _405
REMARK  171  A    between atoms: _405  and  _406
REMARK  172  A    between atoms: _406  and  _407
REMARK  173  A    between atoms: _411  and  _413
REMARK  174  A    between atoms: _413  and  _414
REMARK  175  A    between atoms: _416  and  _418
REMARK  176  A    between atoms: _418  and  _419
REMARK  177  A    between atoms: _418  and  _421
REMARK  178  A    between atoms: _421  and  _422
REMARK  179  A    between atoms: _425  and  _427
REMARK  180  A    between atoms: _427  and  _428
REMARK  181  A    between atoms: _427  and  _430
REMARK  182  A    between atoms: _430  and  _431
REMARK  183  A    between atoms: _433  and  _435
REMARK  184  A    between atoms: _435  and  _436
REMARK  185  A    between atoms: _438  and  _440
REMARK  186  A    between atoms: _440  and  _441
REMARK  187  A    between atoms: _443  and  _445
REMARK  188  A    between atoms: _445  and  _446
REMARK  189  A    between atoms: _445  and  _448
REMARK  190  A    between atoms: _448  and  _449
REMARK  191  A    between atoms: _452  and  _454
REMARK  192  A    between atoms: _454  and  _455
REMARK  193  A    between atoms: _454  and  _457
REMARK  194  A    between atoms: _457  and  _458
REMARK  195  A    between atoms: _461  and  _463
REMARK  196  A    between atoms: _463  and  _464
REMARK  197  A    between atoms: _463  and  _466
REMARK  198  A    between atoms: _466  and  _467
REMARK  199  A    between atoms: _469  and  _471
REMARK  200  A    between atoms: _471  and  _472
REMARK  201  A    between atoms: _471  and  _474
REMARK  202  A    between atoms: _474  and  _475
REMARK  203  A    between atoms: _485  and  _487
REMARK  204  A    between atoms: _487  and  _488
REMARK  205  A    between atoms: _490  and  _492
REMARK  206  A    between atoms: _492  and  _493
REMARK  207  A    between atoms: _492  and  _495
REMARK  208  A    between atoms: _495  and  _496
REMARK  209  A    between atoms: _496  and  _497
REMARK  210  A    between atoms: _500  and  _502
REMARK  211  A    between atoms: _502  and  _503
REMARK  212  A    between atoms: _505  and  _507
REMARK  213  A    between atoms: _507  and  _508
REMARK  214  A    between atoms: _507  and  _510
REMARK  215  A    between atoms: _510  and  _511
REMARK  216  A    between atoms: _512  and  _514
REMARK  217  A    between atoms: _514  and  _515
REMARK  218  A    between atoms: _518  and  _520
REMARK  219  A    between atoms: _520  and  _521
REMARK  220  A    between atoms: _520  and  _523
REMARK  221  A    between atoms: _523  and  _524
REMARK  222  A    between atoms: _524  and  _525
REMARK  223  A    between atoms: _530  and  _532
REMARK  224  A    between atoms: _532  and  _533
REMARK  225  A    between atoms: _532  and  _535
REMARK  226  A    between atoms: _535  and  _536
REMARK  227  A    between atoms: _536  and  _537
REMARK  228  A    between atoms: _537  and  _538
REMARK  229  A    between atoms: _548  and  _549
REMARK  230  A    between atoms: _554  and  _556
REMARK  231  A    between atoms: _556  and  _557
REMARK  232  A    between atoms: _559  and  _561
REMARK  233  A    between atoms: _561  and  _562
REMARK  234  A    between atoms: _561  and  _564
REMARK  235  A    between atoms: _567  and  _569
REMARK  236  A    between atoms: _569  and  _570
REMARK  237  A    between atoms: _569  and  _572
REMARK  238  A    between atoms: _572  and  _573
REMARK  239  A    between atoms: _578  and  _579
REMARK  240  A    between atoms: _581  and  _583
REMARK  241  A    between atoms: _583  and  _584
REMARK  242  A    between atoms: _583  and  _586
REMARK  243  A    between atoms: _586  and  _587
REMARK                            x       y       z     vdW  Elec       q    Type
REMARK                         _______ _______ _______ _____ _____    ______ ____
ROOT
ATOM      1  CA  ALA A   1      30.892 -23.002  25.392  0.00  0.00    +0.133 C 
ATOM      2  CB  ALA A   1      32.198 -22.280  25.766  0.00  0.00    +0.027 C 
ENDROOT
BRANCH   1   3
ATOM      3  N   ALA A   1      31.171 -24.267  24.680  0.00  0.00    -0.239 NA
ATOM      4  H   ALA A   1      32.163 -24.553  24.556  0.00  0.00    +0.142 HD
ENDBRANCH   1   3
BRANCH   1   5
ATOM      5  C   ALA A   1      29.991 -22.093  24.594  0.00  0.00    +0.224 C 
ATOM      6  O   ALA A   1      29.007 -21.582  25.133  0.00  0.00    -0.287 OA
ENDBRANCH   1   5
TORSDOF 2
REMARK  Name = ../refined-set-2016/4x6o/4x6o_pocket.pdb
REMARK  243 active torsions:
REMARK  status: ('A' for Active; 'I' for Inactive)
REMARK    1  A    between atoms: _1  and  _5
REMARK    2  A    between atoms: _5  and  _6
REMARK    3  A    between atoms: _5  and  _8
REMARK    4  A    between atoms: _8  and  _9
REMARK    5  A    between atoms: _12  and  _14
REMARK    6  A    between atoms: _14  and  _15
REMARK    7  A    between atoms: _14  and  _17
REMARK    8  A    between atoms: _20  and  _22
REMARK    9  A    between atoms: _22  and  _23
REMARK   10  A    between atoms: _22  and  _25
REMARK   11  A    between atoms: _25  and  _26
REMARK   12  A    between atoms: _29  and  _31
REMARK   13  A    between atoms: _31  and  _32
REMARK   14  A    between atoms: _31  and  _34
REMARK   15  A    between atoms: _34  and  _35
REMARK   16  A    between atoms: _38  and  _40
REMARK   17  A    between atoms: _40  and  _41
REMARK   18  A    between atoms: _40  and  _43
REMARK   19  A    between atoms: _43  and  _44
REMARK   20  A    between atoms: _49  and  _51
REMARK   21  A    between atoms: _51  and  _52
REMARK   22  A    between atoms: _51  and  _54
REMARK   23  A    between atoms: _54  and  _55
REMARK   24  A    between atoms: _58  and  _60
REMARK   25  A    between atoms: _60  and  _61
REMARK   26  A    between atoms: _60  and  _63
REMARK   27  A    between atoms: _63  and  _64
REMARK   28  A    between atoms: _67  and  _69
REMARK   29  A    between atoms: _69  and  _70
REMARK   30  A    between atoms: _69  and  _72
REMARK   31  A    between atoms: _72  and  _73
REMARK   32  A    between atoms: _73  and  _74
REMARK   33  A    between atoms: _79  and  _81
REMARK   34  A    between atoms: _81  and  _82
REMARK   35  A    between atoms: _81  and  _84
REMARK   36  A    between atoms: _84  and  _85
REMARK   37  A    between atoms: _85  and  _86
REMARK   38  A    between atoms: _86  and  _87
REMARK   39  A    between atoms: _96  and  _98
REMARK   40  A    between atoms: _98  and  _99
REMARK   41  A    between atoms: _98  and  _101
REMARK   42  A    between atoms: _101  and  _102
REMARK   43  A    between atoms: _107  and  _109
REMARK   44  A    between atoms: _109  and  _110
REMARK   45  A    between atoms: _109  and  _112
REMARK   46  A    between atoms: _112  and  _113
REMARK   47  A    between atoms: _116  and  _118
REMARK   48  A    between atoms: _118  and  _119
REMARK   49  A    between atoms: _118  and  _121
REMARK   50  A    between atoms: _121  and  _122
REMARK   51  A    between atoms: _122  and  _157
REMARK   52  A    between atoms: _123  and  _125
REMARK   53  A    between atoms: _125  and  _126
REMARK   54  A    between atoms: _128  and  _130
REMARK   55  A    between atoms: _130  and  _131
REMARK   56  A    between atoms: _134  and  _136
REMARK   57  A    between atoms: _136  and  _137
REMARK   58  A    between atoms: _140  and  _142
REMARK   59  A    between atoms: _142  and  _143
REMARK   60  A    between atoms: _142  and  _145
REMARK   61  A    between atoms: _145  and  _146
REMARK   62  A    between atoms: _151  and  _153
REMARK   63  A    between atoms: _153  and  _154
REMARK   64  A    between atoms: _153  and  _156
REMARK   65  A    between atoms: _156  and  _157
REMARK   66  A    between atoms: _158  and  _160
REMARK   67  A    between atoms: _160  and  _161
REMARK   68  A    between atoms: _160  and  _163
REMARK   69  A    between atoms: _163  and  _164
REMARK   70  A    between atoms: _170  and  _172
REMARK   71  A    between atoms: _172  and  _173
REMARK   72  A    between atoms: _172  and  _175
REMARK   73  A    between atoms: _175  and  _176
REMARK   74  A    between atoms: _181  and  _182
REMARK   75  A    between atoms: _184  and  _186
REMARK   76  A    between atoms: _186  and  _187
REMARK   77  A    between atoms: _186  and  _189
REMARK   78  A    between atoms: _192  and  _194
REMARK   79  A    between atoms: _194  and  _195
REMARK   80  A    between atoms: _194  and  _197
REMARK   81  A    between atoms: _197  and  _198
REMARK   82  A    between atoms: _198  and  _199
REMARK   83  A    between atoms: _204  and  _206
REMARK   84  A    between atoms: _206  and  _207
REMARK   85  A    between atoms: _210  and  _212
REMARK   86  A    between atoms: _212  and  _213
REMARK   87  A    between atoms: _212  and  _215
REMARK   88  A    between atoms: _215  and  _216
REMARK   89  A    between atoms: _219  and  _221
REMARK   90  A    between atoms: _221  and  _222
REMARK   91  A    between atoms: _221  and  _224
REMARK   92  A    between atoms: _227  and  _229
REMARK   93  A    between atoms: _229  and  _230
REMARK   94  A    between atoms: _229  and  _232
REMARK   95  A    between atoms: _232  and  _233
REMARK   96  A    between atoms: _243  and  _245
REMARK   97  A    between atoms: _245  and  _246
REMARK   98  A    between atoms: _248  and  _250
REMARK   99  A    between atoms: _250  and  _251
REMARK  100  A    between atoms: _250  and  _253
REMARK  101  A    between atoms: _253  and  _254
REMARK  102  A    between atoms: _259  and  _260
REMARK  103  A    between atoms: _262  and  _264
REMARK  104  A    between atoms: _264  and  _265
REMARK  105  A    between atoms: _264  and  _267
REMARK  106  A    between atoms: _267  and  _268
REMARK  107  A    between atoms: _268  and  _269
REMARK  108  A    between atoms: _269  and  _270
REMARK  109  A    between atoms: _270  and  _271
REMARK  110  A    between atoms: _275  and  _277
REMARK  111  A    between atoms: _277  and  _278
REMARK  112  A    between atoms: _277  and  _280
REMARK  113  A    between atoms: _280  and  _281
REMARK  114  A    between atoms: _284  and  _286
REMARK  115  A    between atoms: _286  and  _287
REMARK  116  A    between atoms: _286  and  _289
REMARK  117  A    between atoms: _289  and  _290
REMARK  118  A    between atoms: _293  and  _295
REMARK  119  A    between atoms: _295  and  _296
REMARK  120  A    between atoms: _295  and  _298
REMARK  121  A    between atoms: _298  and  _299
REMARK  122  A    between atoms: _299  and  _300
REMARK  123  A    between atoms: _300  and  _301
REMARK  124  A    between atoms: _301  and  _302
REMARK  125  A    between atoms: _306  and  _308
REMARK  126  A    between atoms: _308  and  _309
REMARK  127  A    between atoms: _308  and  _311
REMARK  128  A    between atoms: _311  and  _312
REMARK  129  A    between atoms: _315  and  _317
REMARK  130  A    between atoms: _317  and  _318
REMARK  131  A    between atoms: _317  and  _320
REMARK  132  A    between atoms: _320  and  _321
REMARK  133  A    between atoms: _321  and  _322
REMARK  134  A    between atoms: _327  and  _329
REMARK  135  A    between atoms: _329  and  _330
REMARK  136  A    between atoms: _329  and  _332
REMARK  137  A    between atoms: _332  and  _333
REMARK  138  A    between atoms: _338  and  _339
REMARK  139  A    between atoms: _341  and  _343
REMARK  140  A    between atoms: _343  and  _344
REMARK  141  A    between atoms: _343  and  _346
REMARK  142  A    between atoms: _346  and  _347
REMARK  143  A    between atoms: _350  and  _352
REMARK  144  A    between atoms: _352  and  _353
REMARK  145  A    between atoms: _352  and  _355
REMARK  146  A    between atoms: _357  and  _359
REMARK  147  A    between atoms: _359  and  _360
REMARK  148  A    between atoms: _363  and  _365
REMARK  149  A    between atoms: _365  and  _366
REMARK  150  A    between atoms: _365  and  _368
REMARK  151  A    between atoms: _368  and  _369
REMARK  152  A    between atoms: _369  and  _370
REMARK  153  A    between atoms: _370  and  _371
REMARK  154  A    between atoms: _371  and  _372
REMARK  155  A    between atoms: _376  and  _378
REMARK  156  A    between atoms: _378  and  _379
REMARK  157  A    between atoms: _378  and  _381
REMARK  158  A    between atoms: _381  and  _382
REMARK  159  A    between atoms: _385  and  _387
REMARK  160  A    between atoms: _387  and  _388
REMARK  161  A    between atoms: _391  and  _393
REMARK  162  A    between atoms: _393  and  _394
REMARK  163  A    between atoms: _393  and  _396
REMARK  164  A    between atoms: _396  and  _397
REMARK  165  A    between atoms: _397  and  _511
REMARK  166  A    between atoms: _398  and  _400
REMARK  167  A    between atoms: _400  and  _401
REMARK  168  A    between atoms: _400  and  _403
REMARK  169  A    between atoms: _403  and  _404
REMARK  170  A    between atoms: _404  and  _405
REMARK  171  A    between atoms: _405  and  _406
REMARK  172  A    between atoms: _406  and  _407
REMARK  173  A    between atoms: _411  and  _413
REMARK  174  A    between atoms: _413  and  _414
REMARK  175  A    between atoms: _416  and  _418
REMARK  176  A    between atoms: _418  and  _419
REMARK  177  A    between atoms: _418  and  _421
REMARK  178  A    between atoms: _421  and  _422
REMARK  179  A    between atoms: _425  and  _427
REMARK  180  A    between atoms: _427  and  _428
REMARK  181  A    between atoms: _427  and  _430
REMARK  182  A    between atoms: _430  and  _431
REMARK  183  A    between atoms: _433  and  _435
REMARK  184  A    between atoms: _435  and  _436
REMARK  185  A    between atoms: _438  and  _440
REMARK  186  A    between atoms: _440  and  _441
REMARK  187  A    between atoms: _443  and  _445
REMARK  188  A    between atoms: _445  and  _446
REMARK  189  A    between atoms: _445  and  _448
REMARK  190  A    between atoms: _448  and  _449
REMARK  191  A    between atoms: _452  and  _454
REMARK  192  A    between atoms: _454  and  _455
REMARK  193  A    between atoms: _454  and  _457
REMARK  194  A    between atoms: _457  and  _458
REMARK  195  A    between atoms: _461  and  _463
REMARK  196  A    between atoms: _463  and  _464
REMARK  197  A    between atoms: _463  and  _466
REMARK  198  A    between atoms: _466  and  _467
REMARK  199  A    between atoms: _469  and  _471
REMARK  200  A    between atoms: _471  and  _472
REMARK  201  A    between atoms: _471  and  _474
REMARK  202  A    between atoms: _474  and  _475
REMARK  203  A    between atoms: _485  and  _487
REMARK  204  A    between atoms: _487  and  _488
REMARK  205  A    between atoms: _490  and  _492
REMARK  206  A    between atoms: _492  and  _493
REMARK  207  A    between atoms: _492  and  _495
REMARK  208  A    between atoms: _495  and  _496
REMARK  209  A    between atoms: _496  and  _497
REMARK  210  A    between atoms: _500  and  _502
REMARK  211  A    between atoms: _502  and  _503
REMARK  212  A    between atoms: _505  and  _507
REMARK  213  A    between atoms: _507  and  _508
REMARK  214  A    between atoms: _507  and  _510
REMARK  215  A    between atoms: _510  and  _511
REMARK  216  A    between atoms: _512  and  _514
REMARK  217  A    between atoms: _514  and  _515
REMARK  218  A    between atoms: _518  and  _520
REMARK  219  A    between atoms: _520  and  _521
REMARK  220  A    between atoms: _520  and  _523
REMARK  221  A    between atoms: _523  and  _524
REMARK  222  A    between atoms: _524  and  _525
REMARK  223  A    between atoms: _530  and  _532
REMARK  224  A    between atoms: _532  and  _533
REMARK  225  A    between atoms: _532  and  _535
REMARK  226  A    between atoms: _535  and  _536
REMARK  227  A    between atoms: _536  and  _537
REMARK  228  A    between atoms: _537  and  _538
REMARK  229  A    between atoms: _548  and  _549
REMARK  230  A    between atoms: _554  and  _556
REMARK  231  A    between atoms: _556  and  _557
REMARK  232  A    between atoms: _559  and  _561
REMARK  233  A    between atoms: _561  and  _562
REMARK  234  A    between atoms: _561  and  _564
REMARK  235  A    between atoms: _567  and  _569
REMARK  236  A    between atoms: _569  and  _570
REMARK  237  A    between atoms: _569  and  _572
REMARK  238  A    between atoms: _572  and  _573
REMARK  239  A    between atoms: _578  and  _579
REMARK  240  A    between atoms: _581  and  _583
REMARK  241  A    between atoms: _583  and  _584
REMARK  242  A    between atoms: _583  and  _586
REMARK  243  A    between atoms: _586  and  _587
REMARK                            x       y       z     vdW  Elec       q    Type
REMARK                         _______ _______ _______ _____ _____    ______ ____
ROOT
ATOM      1  CA  ASP A   1      28.643 -24.517  29.917  0.00  0.00    +0.144 C 
ENDROOT
BRANCH   1   2
ATOM      2  N   ASP A   1      27.239 -24.498  29.489  0.00  0.00    -0.239 NA
ATOM      3  H   ASP A   1      26.808 -23.591  29.219  0.00  0.00    +0.142 HD
ENDBRANCH   1   2
BRANCH   1   4
ATOM      4  C   ASP A   1      28.699 -24.433  31.427  0.00  0.00    +0.225 C 
ATOM      5  O   ASP A   1      29.028 -23.399  32.023  0.00  0.00    -0.287 OA
ENDBRANCH   1   4
BRANCH   1   6
ATOM      6  CB  ASP A   1      29.459 -23.406  29.217  0.00  0.00    +0.139 C 
BRANCH   6   7
ATOM      7  CG  ASP A   1      30.950 -23.574  29.370  0.00  0.00    +0.367 C 
ATOM      8  OD2 ASP A   1      31.384 -24.658  29.825  0.00  0.00    -0.246 OA
ATOM      9  OD1 ASP A   1      31.686 -22.617  29.057  0.00  0.00    -0.246 OA
ENDBRANCH   6   7
ENDBRANCH   1   6
TORSDOF 4
REMARK  Name = ../refined-set-2016/4x6o/4x6o_pocket.pdb
REMARK  243 active torsions:
REMARK  status: ('A' for Active; 'I' for Inactive)
REMARK    1  A    between atoms: _1  and  _5
REMARK    2  A    between atoms: _5  and  _6
REMARK    3  A    between atoms: _5  and  _8
REMARK    4  A    between atoms: _8  and  _9
REMARK    5  A    between atoms: _12  and  _14
REMARK    6  A    between atoms: _14  and  _15
REMARK    7  A    between atoms: _14  and  _17
REMARK    8  A    between atoms: _20  and  _22
REMARK    9  A    between atoms: _22  and  _23
REMARK   10  A    between atoms: _22  and  _25
REMARK   11  A    between atoms: _25  and  _26
REMARK   12  A    between atoms: _29  and  _31
REMARK   13  A    between atoms: _31  and  _32
REMARK   14  A    between atoms: _31  and  _34
REMARK   15  A    between atoms: _34  and  _35
REMARK   16  A    between atoms: _38  and  _40
REMARK   17  A    between atoms: _40  and  _41
REMARK   18  A    between atoms: _40  and  _43
REMARK   19  A    between atoms: _43  and  _44
REMARK   20  A    between atoms: _49  and  _51
REMARK   21  A    between atoms: _51  and  _52
REMARK   22  A    between atoms: _51  and  _54
REMARK   23  A    between atoms: _54  and  _55
REMARK   24  A    between atoms: _58  and  _60
REMARK   25  A    between atoms: _60  and  _61
REMARK   26  A    between atoms: _60  and  _63
REMARK   27  A    between atoms: _63  and  _64
REMARK   28  A    between atoms: _67  and  _69
REMARK   29  A    between atoms: _69  and  _70
REMARK   30  A    between atoms: _69  and  _72
REMARK   31  A    between atoms: _72  and  _73
REMARK   32  A    between atoms: _73  and  _74
REMARK   33  A    between atoms: _79  and  _81
REMARK   34  A    between atoms: _81  and  _82
REMARK   35  A    between atoms: _81  and  _84
REMARK   36  A    between atoms: _84  and  _85
REMARK   37  A    between atoms: _85  and  _86
REMARK   38  A    between atoms: _86  and  _87
REMARK   39  A    between atoms: _96  and  _98
REMARK   40  A    between atoms: _98  and  _99
REMARK   41  A    between atoms: _98  and  _101
REMARK   42  A    between atoms: _101  and  _102
REMARK   43  A    between atoms: _107  and  _109
REMARK   44  A    between atoms: _109  and  _110
REMARK   45  A    between atoms: _109  and  _112
REMARK   46  A    between atoms: _112  and  _113
REMARK   47  A    between atoms: _116  and  _118
REMARK   48  A    between atoms: _118  and  _119
REMARK   49  A    between atoms: _118  and  _121
REMARK   50  A    between atoms: _121  and  _122
REMARK   51  A    between atoms: _122  and  _157
REMARK   52  A    between atoms: _123  and  _125
REMARK   53  A    between atoms: _125  and  _126
REMARK   54  A    between atoms: _128  and  _130
REMARK   55  A    between atoms: _130  and  _131
REMARK   56  A    between atoms: _134  and  _136
REMARK   57  A    between atoms: _136  and  _137
REMARK   58  A    between atoms: _140  and  _142
REMARK   59  A    between atoms: _142  and  _143
REMARK   60  A    between atoms: _142  and  _145
REMARK   61  A    between atoms: _145  and  _146
REMARK   62  A    between atoms: _151  and  _153
REMARK   63  A    between atoms: _153  and  _154
REMARK   64  A    between atoms: _153  and  _156
REMARK   65  A    between atoms: _156  and  _157
REMARK   66  A    between atoms: _158  and  _160
REMARK   67  A    between atoms: _160  and  _161
REMARK   68  A    between atoms: _160  and  _163
REMARK   69  A    between atoms: _163  and  _164
REMARK   70  A    between atoms: _170  and  _172
REMARK   71  A    between atoms: _172  and  _173
REMARK   72  A    between atoms: _172  and  _175
REMARK   73  A    between atoms: _175  and  _176
REMARK   74  A    between atoms: _181  and  _182
REMARK   75  A    between atoms: _184  and  _186
REMARK   76  A    between atoms: _186  and  _187
REMARK   77  A    between atoms: _186  and  _189
REMARK   78  A    between atoms: _192  and  _194
REMARK   79  A    between atoms: _194  and  _195
REMARK   80  A    between atoms: _194  and  _197
REMARK   81  A    between atoms: _197  and  _198
REMARK   82  A    between atoms: _198  and  _199
REMARK   83  A    between atoms: _204  and  _206
REMARK   84  A    between atoms: _206  and  _207
REMARK   85  A    between atoms: _210  and  _212
REMARK   86  A    between atoms: _212  and  _213
REMARK   87  A    between atoms: _212  and  _215
REMARK   88  A    between atoms: _215  and  _216
REMARK   89  A    between atoms: _219  and  _221
REMARK   90  A    between atoms: _221  and  _222
REMARK   91  A    between atoms: _221  and  _224
REMARK   92  A    between atoms: _227  and  _229
REMARK   93  A    between atoms: _229  and  _230
REMARK   94  A    between atoms: _229  and  _232
REMARK   95  A    between atoms: _232  and  _233
REMARK   96  A    between atoms: _243  and  _245
REMARK   97  A    between atoms: _245  and  _246
REMARK   98  A    between atoms: _248  and  _250
REMARK   99  A    between atoms: _250  and  _251
REMARK  100  A    between atoms: _250  and  _253
REMARK  101  A    between atoms: _253  and  _254
REMARK  102  A    between atoms: _259  and  _260
REMARK  103  A    between atoms: _262  and  _264
REMARK  104  A    between atoms: _264  and  _265
REMARK  105  A    between atoms: _264  and  _267
REMARK  106  A    between atoms: _267  and  _268
REMARK  107  A    between atoms: _268  and  _269
REMARK  108  A    between atoms: _269  and  _270
REMARK  109  A    between atoms: _270  and  _271
REMARK  110  A    between atoms: _275  and  _277
REMARK  111  A    between atoms: _277  and  _278
REMARK  112  A    between atoms: _277  and  _280
REMARK  113  A    between atoms: _280  and  _281
REMARK  114  A    between atoms: _284  and  _286
REMARK  115  A    between atoms: _286  and  _287
REMARK  116  A    between atoms: _286  and  _289
REMARK  117  A    between atoms: _289  and  _290
REMARK  118  A    between atoms: _293  and  _295
REMARK  119  A    between atoms: _295  and  _296
REMARK  120  A    between atoms: _295  and  _298
REMARK  121  A    between atoms: _298  and  _299
REMARK  122  A    between atoms: _299  and  _300
REMARK  123  A    between atoms: _300  and  _301
REMARK  124  A    between atoms: _301  and  _302
REMARK  125  A    between atoms: _306  and  _308
REMARK  126  A    between atoms: _308  and  _309
REMARK  127  A    between atoms: _308  and  _311
REMARK  128  A    between atoms: _311  and  _312
REMARK  129  A    between atoms: _315  and  _317
REMARK  130  A    between atoms: _317  and  _318
REMARK  131  A    between atoms: _317  and  _320
REMARK  132  A    between atoms: _320  and  _321
REMARK  133  A    between atoms: _321  and  _322
REMARK  134  A    between atoms: _327  and  _329
REMARK  135  A    between atoms: _329  and  _330
REMARK  136  A    between atoms: _329  and  _332
REMARK  137  A    between atoms: _332  and  _333
REMARK  138  A    between atoms: _338  and  _339
REMARK  139  A    between atoms: _341  and  _343
REMARK  140  A    between atoms: _343  and  _344
REMARK  141  A    between atoms: _343  and  _346
REMARK  142  A    between atoms: _346  and  _347
REMARK  143  A    between atoms: _350  and  _352
REMARK  144  A    between atoms: _352  and  _353
REMARK  145  A    between atoms: _352  and  _355
REMARK  146  A    between atoms: _357  and  _359
REMARK  147  A    between atoms: _359  and  _360
REMARK  148  A    between atoms: _363  and  _365
REMARK  149  A    between atoms: _365  and  _366
REMARK  150  A    between atoms: _365  and  _368
REMARK  151  A    between atoms: _368  and  _369
REMARK  152  A    between atoms: _369  and  _370
REMARK  153  A    between atoms: _370  and  _371
REMARK  154  A    between atoms: _371  and  _372
REMARK  155  A    between atoms: _376  and  _378
REMARK  156  A    between atoms: _378  and  _379
REMARK  157  A    between atoms: _378  and  _381
REMARK  158  A    between atoms: _381  and  _382
REMARK  159  A    between atoms: _385  and  _387
REMARK  160  A    between atoms: _387  and  _388
REMARK  161  A    between atoms: _391  and  _393
REMARK  162  A    between atoms: _393  and  _394
REMARK  163  A    between atoms: _393  and  _396
REMARK  164  A    between atoms: _396  and  _397
REMARK  165  A    between atoms: _397  and  _511
REMARK  166  A    between atoms: _398  and  _400
REMARK  167  A    between atoms: _400  and  _401
REMARK  168  A    between atoms: _400  and  _403
REMARK  169  A    between atoms: _403  and  _404
REMARK  170  A    between atoms: _404  and  _405
REMARK  171  A    between atoms: _405  and  _406
REMARK  172  A    between atoms: _406  and  _407
REMARK  173  A    between atoms: _411  and  _413
REMARK  174  A    between atoms: _413  and  _414
REMARK  175  A    between atoms: _416  and  _418
REMARK  176  A    between atoms: _418  and  _419
REMARK  177  A    between atoms: _418  and  _421
REMARK  178  A    between atoms: _421  and  _422
REMARK  179  A    between atoms: _425  and  _427
REMARK  180  A    between atoms: _427  and  _428
REMARK  181  A    between atoms: _427  and  _430
REMARK  182  A    between atoms: _430  and  _431
REMARK  183  A    between atoms: _433  and  _435
REMARK  184  A    between atoms: _435  and  _436
REMARK  185  A    between atoms: _438  and  _440
REMARK  186  A    between atoms: _440  and  _441
REMARK  187  A    between atoms: _443  and  _445
REMARK  188  A    between atoms: _445  and  _446
REMARK  189  A    between atoms: _445  and  _448
REMARK  190  A    between atoms: _448  and  _449
REMARK  191  A    between atoms: _452  and  _454
REMARK  192  A    between atoms: _454  and  _455
REMARK  193  A    between atoms: _454  and  _457
REMARK  194  A    between atoms: _457  and  _458
REMARK  195  A    between atoms: _461  and  _463
REMARK  196  A    between atoms: _463  and  _464
REMARK  197  A    between atoms: _463  and  _466
REMARK  198  A    between atoms: _466  and  _467
REMARK  199  A    between atoms: _469  and  _471
REMARK  200  A    between atoms: _471  and  _472
REMARK  201  A    between atoms: _471  and  _474
REMARK  202  A    between atoms: _474  and  _475
REMARK  203  A    between atoms: _485  and  _487
REMARK  204  A    between atoms: _487  and  _488
REMARK  205  A    between atoms: _490  and  _492
REMARK  206  A    between atoms: _492  and  _493
REMARK  207  A    between atoms: _492  and  _495
REMARK  208  A    between atoms: _495  and  _496
REMARK  209  A    between atoms: _496  and  _497
REMARK  210  A    between atoms: _500  and  _502
REMARK  211  A    between atoms: _502  and  _503
REMARK  212  A    between atoms: _505  and  _507
REMARK  213  A    between atoms: _507  and  _508
REMARK  214  A    between atoms: _507  and  _510
REMARK  215  A    between atoms: _510  and  _511
REMARK  216  A    between atoms: _512  and  _514
REMARK  217  A    between atoms: _514  and  _515
REMARK  218  A    between atoms: _518  and  _520
REMARK  219  A    between atoms: _520  and  _521
REMARK  220  A    between atoms: _520  and  _523
REMARK  221  A    between atoms: _523  and  _524
REMARK  222  A    between atoms: _524  and  _525
REMARK  223  A    between atoms: _530  and  _532
REMARK  224  A    between atoms: _532  and  _533
REMARK  225  A    between atoms: _532  and  _535
REMARK  226  A    between atoms: _535  and  _536
REMARK  227  A    between atoms: _536  and  _537
REMARK  228  A    between atoms: _537  and  _538
REMARK  229  A    between atoms: _548  and  _549
REMARK  230  A    between atoms: _554  and  _556
REMARK  231  A    between atoms: _556  and  _557
REMARK  232  A    between atoms: _559  and  _561
REMARK  233  A    between atoms: _561  and  _562
REMARK  234  A    between atoms: _561  and  _564
REMARK  235  A    between atoms: _567  and  _569
REMARK  236  A    between atoms: _569  and  _570
REMARK  237  A    between atoms: _569  and  _572
REMARK  238  A    between atoms: _572  and  _573
REMARK  239  A    between atoms: _578  and  _579
REMARK  240  A    between atoms: _581  and  _583
REMARK  241  A    between atoms: _583  and  _584
REMARK  242  A    between atoms: _583  and  _586
REMARK  243  A    between atoms: _586  and  _587
REMARK                            x       y       z     vdW  Elec       q    Type
REMARK                         _______ _______ _______ _____ _____    ______ ____
ROOT
ATOM      1  CA  VAL A   1      34.535 -10.842  37.536  0.00  0.00    +0.133 C 
ENDROOT
BRANCH   1   2
ATOM      2  CB  VAL A   1      34.526 -10.897  35.977  0.00  0.00    +0.023 C 
ATOM      3  CG2 VAL A   1      34.976 -12.270  35.490  0.00  0.00    +0.002 C 
ATOM      4  CG1 VAL A   1      35.371  -9.780  35.342  0.00  0.00    +0.002 C 
ENDBRANCH   1   2
BRANCH   1   5
ATOM      5  N   VAL A   1      33.913  -9.643  38.101  0.00  0.00    -0.239 NA
ATOM      6  H   VAL A   1      34.263  -8.716  37.783  0.00  0.00    +0.142 HD
ENDBRANCH   1   5
BRANCH   1   7
ATOM      7  C   VAL A   1      35.932 -10.971  38.165  0.00  0.00    +0.224 C 
ATOM      8  O   VAL A   1      36.660  -9.981  38.264  0.00  0.00    -0.287 OA
ENDBRANCH   1   7
TORSDOF 3
REMARK  Name = ../refined-set-2016/4x6o/4x6o_pocket.pdb
REMARK  243 active torsions:
REMARK  status: ('A' for Active; 'I' for Inactive)
REMARK    1  A    between atoms: _1  and  _5
REMARK    2  A    between atoms: _5  and  _6
REMARK    3  A    between atoms: _5  and  _8
REMARK    4  A    between atoms: _8  and  _9
REMARK    5  A    between atoms: _12  and  _14
REMARK    6  A    between atoms: _14  and  _15
REMARK    7  A    between atoms: _14  and  _17
REMARK    8  A    between atoms: _20  and  _22
REMARK    9  A    between atoms: _22  and  _23
REMARK   10  A    between atoms: _22  and  _25
REMARK   11  A    between atoms: _25  and  _26
REMARK   12  A    between atoms: _29  and  _31
REMARK   13  A    between atoms: _31  and  _32
REMARK   14  A    between atoms: _31  and  _34
REMARK   15  A    between atoms: _34  and  _35
REMARK   16  A    between atoms: _38  and  _40
REMARK   17  A    between atoms: _40  and  _41
REMARK   18  A    between atoms: _40  and  _43
REMARK   19  A    between atoms: _43  and  _44
REMARK   20  A    between atoms: _49  and  _51
REMARK   21  A    between atoms: _51  and  _52
REMARK   22  A    between atoms: _51  and  _54
REMARK   23  A    between atoms: _54  and  _55
REMARK   24  A    between atoms: _58  and  _60
REMARK   25  A    between atoms: _60  and  _61
REMARK   26  A    between atoms: _60  and  _63
REMARK   27  A    between atoms: _63  and  _64
REMARK   28  A    between atoms: _67  and  _69
REMARK   29  A    between atoms: _69  and  _70
REMARK   30  A    between atoms: _69  and  _72
REMARK   31  A    between atoms: _72  and  _73
REMARK   32  A    between atoms: _73  and  _74
REMARK   33  A    between atoms: _79  and  _81
REMARK   34  A    between atoms: _81  and  _82
REMARK   35  A    between atoms: _81  and  _84
REMARK   36  A    between atoms: _84  and  _85
REMARK   37  A    between atoms: _85  and  _86
REMARK   38  A    between atoms: _86  and  _87
REMARK   39  A    between atoms: _96  and  _98
REMARK   40  A    between atoms: _98  and  _99
REMARK   41  A    between atoms: _98  and  _101
REMARK   42  A    between atoms: _101  and  _102
REMARK   43  A    between atoms: _107  and  _109
REMARK   44  A    between atoms: _109  and  _110
REMARK   45  A    between atoms: _109  and  _112
REMARK   46  A    between atoms: _112  and  _113
REMARK   47  A    between atoms: _116  and  _118
REMARK   48  A    between atoms: _118  and  _119
REMARK   49  A    between atoms: _118  and  _121
REMARK   50  A    between atoms: _121  and  _122
REMARK   51  A    between atoms: _122  and  _157
REMARK   52  A    between atoms: _123  and  _125
REMARK   53  A    between atoms: _125  and  _126
REMARK   54  A    between atoms: _128  and  _130
REMARK   55  A    between atoms: _130  and  _131
REMARK   56  A    between atoms: _134  and  _136
REMARK   57  A    between atoms: _136  and  _137
REMARK   58  A    between atoms: _140  and  _142
REMARK   59  A    between atoms: _142  and  _143
REMARK   60  A    between atoms: _142  and  _145
REMARK   61  A    between atoms: _145  and  _146
REMARK   62  A    between atoms: _151  and  _153
REMARK   63  A    between atoms: _153  and  _154
REMARK   64  A    between atoms: _153  and  _156
REMARK   65  A    between atoms: _156  and  _157
REMARK   66  A    between atoms: _158  and  _160
REMARK   67  A    between atoms: _160  and  _161
REMARK   68  A    between atoms: _160  and  _163
REMARK   69  A    between atoms: _163  and  _164
REMARK   70  A    between atoms: _170  and  _172
REMARK   71  A    between atoms: _172  and  _173
REMARK   72  A    between atoms: _172  and  _175
REMARK   73  A    between atoms: _175  and  _176
REMARK   74  A    between atoms: _181  and  _182
REMARK   75  A    between atoms: _184  and  _186
REMARK   76  A    between atoms: _186  and  _187
REMARK   77  A    between atoms: _186  and  _189
REMARK   78  A    between atoms: _192  and  _194
REMARK   79  A    between atoms: _194  and  _195
REMARK   80  A    between atoms: _194  and  _197
REMARK   81  A    between atoms: _197  and  _198
REMARK   82  A    between atoms: _198  and  _199
REMARK   83  A    between atoms: _204  and  _206
REMARK   84  A    between atoms: _206  and  _207
REMARK   85  A    between atoms: _210  and  _212
REMARK   86  A    between atoms: _212  and  _213
REMARK   87  A    between atoms: _212  and  _215
REMARK   88  A    between atoms: _215  and  _216
REMARK   89  A    between atoms: _219  and  _221
REMARK   90  A    between atoms: _221  and  _222
REMARK   91  A    between atoms: _221  and  _224
REMARK   92  A    between atoms: _227  and  _229
REMARK   93  A    between atoms: _229  and  _230
REMARK   94  A    between atoms: _229  and  _232
REMARK   95  A    between atoms: _232  and  _233
REMARK   96  A    between atoms: _243  and  _245
REMARK   97  A    between atoms: _245  and  _246
REMARK   98  A    between atoms: _248  and  _250
REMARK   99  A    between atoms: _250  and  _251
REMARK  100  A    between atoms: _250  and  _253
REMARK  101  A    between atoms: _253  and  _254
REMARK  102  A    between atoms: _259  and  _260
REMARK  103  A    between atoms: _262  and  _264
REMARK  104  A    between atoms: _264  and  _265
REMARK  105  A    between atoms: _264  and  _267
REMARK  106  A    between atoms: _267  and  _268
REMARK  107  A    between atoms: _268  and  _269
REMARK  108  A    between atoms: _269  and  _270
REMARK  109  A    between atoms: _270  and  _271
REMARK  110  A    between atoms: _275  and  _277
REMARK  111  A    between atoms: _277  and  _278
REMARK  112  A    between atoms: _277  and  _280
REMARK  113  A    between atoms: _280  and  _281
REMARK  114  A    between atoms: _284  and  _286
REMARK  115  A    between atoms: _286  and  _287
REMARK  116  A    between atoms: _286  and  _289
REMARK  117  A    between atoms: _289  and  _290
REMARK  118  A    between atoms: _293  and  _295
REMARK  119  A    between atoms: _295  and  _296
REMARK  120  A    between atoms: _295  and  _298
REMARK  121  A    between atoms: _298  and  _299
REMARK  122  A    between atoms: _299  and  _300
REMARK  123  A    between atoms: _300  and  _301
REMARK  124  A    between atoms: _301  and  _302
REMARK  125  A    between atoms: _306  and  _308
REMARK  126  A    between atoms: _308  and  _309
REMARK  127  A    between atoms: _308  and  _311
REMARK  128  A    between atoms: _311  and  _312
REMARK  129  A    between atoms: _315  and  _317
REMARK  130  A    between atoms: _317  and  _318
REMARK  131  A    between atoms: _317  and  _320
REMARK  132  A    between atoms: _320  and  _321
REMARK  133  A    between atoms: _321  and  _322
REMARK  134  A    between atoms: _327  and  _329
REMARK  135  A    between atoms: _329  and  _330
REMARK  136  A    between atoms: _329  and  _332
REMARK  137  A    between atoms: _332  and  _333
REMARK  138  A    between atoms: _338  and  _339
REMARK  139  A    between atoms: _341  and  _343
REMARK  140  A    between atoms: _343  and  _344
REMARK  141  A    between atoms: _343  and  _346
REMARK  142  A    between atoms: _346  and  _347
REMARK  143  A    between atoms: _350  and  _352
REMARK  144  A    between atoms: _352  and  _353
REMARK  145  A    between atoms: _352  and  _355
REMARK  146  A    between atoms: _357  and  _359
REMARK  147  A    between atoms: _359  and  _360
REMARK  148  A    between atoms: _363  and  _365
REMARK  149  A    between atoms: _365  and  _366
REMARK  150  A    between atoms: _365  and  _368
REMARK  151  A    between atoms: _368  and  _369
REMARK  152  A    between atoms: _369  and  _370
REMARK  153  A    between atoms: _370  and  _371
REMARK  154  A    between atoms: _371  and  _372
REMARK  155  A    between atoms: _376  and  _378
REMARK  156  A    between atoms: _378  and  _379
REMARK  157  A    between atoms: _378  and  _381
REMARK  158  A    between atoms: _381  and  _382
REMARK  159  A    between atoms: _385  and  _387
REMARK  160  A    between atoms: _387  and  _388
REMARK  161  A    between atoms: _391  and  _393
REMARK  162  A    between atoms: _393  and  _394
REMARK  163  A    between atoms: _393  and  _396
REMARK  164  A    between atoms: _396  and  _397
REMARK  165  A    between atoms: _397  and  _511
REMARK  166  A    between atoms: _398  and  _400
REMARK  167  A    between atoms: _400  and  _401
REMARK  168  A    between atoms: _400  and  _403
REMARK  169  A    between atoms: _403  and  _404
REMARK  170  A    between atoms: _404  and  _405
REMARK  171  A    between atoms: _405  and  _406
REMARK  172  A    between atoms: _406  and  _407
REMARK  173  A    between atoms: _411  and  _413
REMARK  174  A    between atoms: _413  and  _414
REMARK  175  A    between atoms: _416  and  _418
REMARK  176  A    between atoms: _418  and  _419
REMARK  177  A    between atoms: _418  and  _421
REMARK  178  A    between atoms: _421  and  _422
REMARK  179  A    between atoms: _425  and  _427
REMARK  180  A    between atoms: _427  and  _428
REMARK  181  A    between atoms: _427  and  _430
REMARK  182  A    between atoms: _430  and  _431
REMARK  183  A    between atoms: _433  and  _435
REMARK  184  A    between atoms: _435  and  _436
REMARK  185  A    between atoms: _438  and  _440
REMARK  186  A    between atoms: _440  and  _441
REMARK  187  A    between atoms: _443  and  _445
REMARK  188  A    between atoms: _445  and  _446
REMARK  189  A    between atoms: _445  and  _448
REMARK  190  A    between atoms: _448  and  _449
REMARK  191  A    between atoms: _452  and  _454
REMARK  192  A    between atoms: _454  and  _455
REMARK  193  A    between atoms: _454  and  _457
REMARK  194  A    between atoms: _457  and  _458
REMARK  195  A    between atoms: _461  and  _463
REMARK  196  A    between atoms: _463  and  _464
REMARK  197  A    between atoms: _463  and  _466
REMARK  198  A    between atoms: _466  and  _467
REMARK  199  A    between atoms: _469  and  _471
REMARK  200  A    between atoms: _471  and  _472
REMARK  201  A    between atoms: _471  and  _474
REMARK  202  A    between atoms: _474  and  _475
REMARK  203  A    between atoms: _485  and  _487
REMARK  204  A    between atoms: _487  and  _488
REMARK  205  A    between atoms: _490  and  _492
REMARK  206  A    between atoms: _492  and  _493
REMARK  207  A    between atoms: _492  and  _495
REMARK  208  A    between atoms: _495  and  _496
REMARK  209  A    between atoms: _496  and  _497
REMARK  210  A    between atoms: _500  and  _502
REMARK  211  A    between atoms: _502  and  _503
REMARK  212  A    between atoms: _505  and  _507
REMARK  213  A    between atoms: _507  and  _508
REMARK  214  A    between atoms: _507  and  _510
REMARK  215  A    between atoms: _510  and  _511
REMARK  216  A    between atoms: _512  and  _514
REMARK  217  A    between atoms: _514  and  _515
REMARK  218  A    between atoms: _518  and  _520
REMARK  219  A    between atoms: _520  and  _521
REMARK  220  A    between atoms: _520  and  _523
REMARK  221  A    between atoms: _523  and  _524
REMARK  222  A    between atoms: _524  and  _525
REMARK  223  A    between atoms: _530  and  _532
REMARK  224  A    between atoms: _532  and  _533
REMARK  225  A    between atoms: _532  and  _535
REMARK  226  A    between atoms: _535  and  _536
REMARK  227  A    between atoms: _536  and  _537
REMARK  228  A    between atoms: _537  and  _538
REMARK  229  A    between atoms: _548  and  _549
REMARK  230  A    between atoms: _554  and  _556
REMARK  231  A    between atoms: _556  and  _557
REMARK  232  A    between atoms: _559  and  _561
REMARK  233  A    between atoms: _561  and  _562
REMARK  234  A    between atoms: _561  and  _564
REMARK  235  A    between atoms: _567  and  _569
REMARK  236  A    between atoms: _569  and  _570
REMARK  237  A    between atoms: _569  and  _572
REMARK  238  A    between atoms: _572  and  _573
REMARK  239  A    between atoms: _578  and  _579
REMARK  240  A    between atoms: _581  and  _583
REMARK  241  A    between atoms: _583  and  _584
REMARK  242  A    between atoms: _583  and  _586
REMARK  243  A    between atoms: _586  and  _587
REMARK                            x       y       z     vdW  Elec       q    Type
REMARK                         _______ _______ _______ _____ _____    ______ ____
ROOT
ATOM      1  C   TRP A   1      44.491 -15.444  36.590  0.00  0.00    +0.239 C 
ATOM      2  O   TRP A   1      45.643 -15.676  36.268  0.00  0.00    -0.274 OA
ATOM      3  N   GLY A   2      43.527 -15.225  35.700  0.00  0.00    -0.296 N 
ATOM      4  H   GLY A   2      42.562 -15.040  36.040  0.00  0.00    +0.150 HD
ENDROOT
BRANCH   1   5
ATOM      5  CA  TRP A   1      44.092 -15.458  38.082  0.00  0.00    +0.149 C 
BRANCH   5   6
ATOM      6  N   TRP A   1      42.629 -15.509  38.230  0.00  0.00    -0.238 NA
ATOM      7  H   TRP A   1      42.161 -16.433  38.140  0.00  0.00    +0.142 HD
ENDBRANCH   5   6
BRANCH   5   8
ATOM      8  CB  TRP A   1      44.730 -16.672  38.775  0.00  0.00    +0.054 C 
BRANCH   8   9
ATOM      9  CG  TRP A   1      44.654 -16.611  40.274  0.00  0.00    -0.002 A 
ATOM     10  CD1 TRP A   1      45.560 -16.036  41.124  0.00  0.00    +0.068 A 
ATOM     11  NE1 TRP A   1      45.149 -16.199  42.433  0.00  0.00    -0.352 N 
ATOM     12  HE1 TRP A   1      45.647 -15.839  43.272  0.00  0.00    +0.166 HD
ATOM     13  CE2 TRP A   1      43.975 -16.914  42.447  0.00  0.00    +0.056 A 
ATOM     14  CZ2 TRP A   1      43.204 -17.379  43.527  0.00  0.00    +0.017 A 
ATOM     15  CH2 TRP A   1      42.056 -18.089  43.233  0.00  0.00    +0.001 A 
ATOM     16  CZ3 TRP A   1      41.680 -18.357  41.902  0.00  0.00    +0.000 A 
ATOM     17  CE3 TRP A   1      42.466 -17.938  40.832  0.00  0.00    +0.001 A 
ATOM     18  CD2 TRP A   1      43.638 -17.196  41.100  0.00  0.00    +0.013 A 
ENDBRANCH   8   9
ENDBRANCH   5   8
ENDBRANCH   1   5
BRANCH   3  19
ATOM     19  CA  GLY A   2      43.779 -15.236  34.261  0.00  0.00    +0.176 C 
BRANCH  19  20
ATOM     20  C   GLY A   2      44.656 -14.100  33.756  0.00  0.00    +0.243 C 
ATOM     21  O   GLY A   2      45.032 -13.197  34.510  0.00  0.00    -0.273 OA
ATOM     22  N   TYR A   3      44.971 -14.148  32.458  0.00  0.00    -0.298 N 
ATOM     23  H   TYR A   3      44.576 -14.937  31.907  0.00  0.00    +0.150 HD
BRANCH  22  24
ATOM     24  CA  TYR A   3      45.819 -13.196  31.736  0.00  0.00    +0.141 C 
BRANCH  24  25
ATOM     25  C   TYR A   3      45.248 -11.791  31.810  0.00  0.00    +0.227 C 
ATOM     26  O   TYR A   3      44.031 -11.627  31.900  0.00  0.00    -0.286 OA
ENDBRANCH  24  25
BRANCH  24  27
ATOM     27  CB  TYR A   3      45.854 -13.579  30.241  0.00  0.00    +0.054 C 
BRANCH  27  28
ATOM     28  CG  TYR A   3      46.613 -14.830  29.836  0.00  0.00    -0.020 A 
ATOM     29  CD2 TYR A   3      46.909 -15.830  30.765  0.00  0.00    -0.001 A 
ATOM     30  CE2 TYR A   3      47.546 -17.010  30.380  0.00  0.00    +0.036 A 
ATOM     31  CZ  TYR A   3      47.866 -17.216  29.045  0.00  0.00    +0.134 A 
ATOM     32  CE1 TYR A   3      47.579 -16.244  28.105  0.00  0.00    +0.036 A 
ATOM     33  CD1 TYR A   3      46.950 -15.060  28.503  0.00  0.00    -0.001 A 
BRANCH  31  34
ATOM     34  OH  TYR A   3      48.493 -18.364  28.646  0.00  0.00    -0.506 OA
ATOM     35  HH  TYR A   3      47.934 -18.827  27.973  0.00  0.00    +0.292 HD
ENDBRANCH  31  34
ENDBRANCH  27  28
ENDBRANCH  24  27
ENDBRANCH  22  24
ENDBRANCH  19  20
ENDBRANCH   3  19
TORSDOF 11
REMARK  Name = ../refined-set-2016/4x6o/4x6o_pocket.pdb
REMARK  243 active torsions:
REMARK  status: ('A' for Active; 'I' for Inactive)
REMARK    1  A    between atoms: _1  and  _5
REMARK    2  A    between atoms: _5  and  _6
REMARK    3  A    between atoms: _5  and  _8
REMARK    4  A    between atoms: _8  and  _9
REMARK    5  A    between atoms: _12  and  _14
REMARK    6  A    between atoms: _14  and  _15
REMARK    7  A    between atoms: _14  and  _17
REMARK    8  A    between atoms: _20  and  _22
REMARK    9  A    between atoms: _22  and  _23
REMARK   10  A    between atoms: _22  and  _25
REMARK   11  A    between atoms: _25  and  _26
REMARK   12  A    between atoms: _29  and  _31
REMARK   13  A    between atoms: _31  and  _32
REMARK   14  A    between atoms: _31  and  _34
REMARK   15  A    between atoms: _34  and  _35
REMARK   16  A    between atoms: _38  and  _40
REMARK   17  A    between atoms: _40  and  _41
REMARK   18  A    between atoms: _40  and  _43
REMARK   19  A    between atoms: _43  and  _44
REMARK   20  A    between atoms: _49  and  _51
REMARK   21  A    between atoms: _51  and  _52
REMARK   22  A    between atoms: _51  and  _54
REMARK   23  A    between atoms: _54  and  _55
REMARK   24  A    between atoms: _58  and  _60
REMARK   25  A    between atoms: _60  and  _61
REMARK   26  A    between atoms: _60  and  _63
REMARK   27  A    between atoms: _63  and  _64
REMARK   28  A    between atoms: _67  and  _69
REMARK   29  A    between atoms: _69  and  _70
REMARK   30  A    between atoms: _69  and  _72
REMARK   31  A    between atoms: _72  and  _73
REMARK   32  A    between atoms: _73  and  _74
REMARK   33  A    between atoms: _79  and  _81
REMARK   34  A    between atoms: _81  and  _82
REMARK   35  A    between atoms: _81  and  _84
REMARK   36  A    between atoms: _84  and  _85
REMARK   37  A    between atoms: _85  and  _86
REMARK   38  A    between atoms: _86  and  _87
REMARK   39  A    between atoms: _96  and  _98
REMARK   40  A    between atoms: _98  and  _99
REMARK   41  A    between atoms: _98  and  _101
REMARK   42  A    between atoms: _101  and  _102
REMARK   43  A    between atoms: _107  and  _109
REMARK   44  A    between atoms: _109  and  _110
REMARK   45  A    between atoms: _109  and  _112
REMARK   46  A    between atoms: _112  and  _113
REMARK   47  A    between atoms: _116  and  _118
REMARK   48  A    between atoms: _118  and  _119
REMARK   49  A    between atoms: _118  and  _121
REMARK   50  A    between atoms: _121  and  _122
REMARK   51  A    between atoms: _122  and  _157
REMARK   52  A    between atoms: _123  and  _125
REMARK   53  A    between atoms: _125  and  _126
REMARK   54  A    between atoms: _128  and  _130
REMARK   55  A    between atoms: _130  and  _131
REMARK   56  A    between atoms: _134  and  _136
REMARK   57  A    between atoms: _136  and  _137
REMARK   58  A    between atoms: _140  and  _142
REMARK   59  A    between atoms: _142  and  _143
REMARK   60  A    between atoms: _142  and  _145
REMARK   61  A    between atoms: _145  and  _146
REMARK   62  A    between atoms: _151  and  _153
REMARK   63  A    between atoms: _153  and  _154
REMARK   64  A    between atoms: _153  and  _156
REMARK   65  A    between atoms: _156  and  _157
REMARK   66  A    between atoms: _158  and  _160
REMARK   67  A    between atoms: _160  and  _161
REMARK   68  A    between atoms: _160  and  _163
REMARK   69  A    between atoms: _163  and  _164
REMARK   70  A    between atoms: _170  and  _172
REMARK   71  A    between atoms: _172  and  _173
REMARK   72  A    between atoms: _172  and  _175
REMARK   73  A    between atoms: _175  and  _176
REMARK   74  A    between atoms: _181  and  _182
REMARK   75  A    between atoms: _184  and  _186
REMARK   76  A    between atoms: _186  and  _187
REMARK   77  A    between atoms: _186  and  _189
REMARK   78  A    between atoms: _192  and  _194
REMARK   79  A    between atoms: _194  and  _195
REMARK   80  A    between atoms: _194  and  _197
REMARK   81  A    between atoms: _197  and  _198
REMARK   82  A    between atoms: _198  and  _199
REMARK   83  A    between atoms: _204  and  _206
REMARK   84  A    between atoms: _206  and  _207
REMARK   85  A    between atoms: _210  and  _212
REMARK   86  A    between atoms: _212  and  _213
REMARK   87  A    between atoms: _212  and  _215
REMARK   88  A    between atoms: _215  and  _216
REMARK   89  A    between atoms: _219  and  _221
REMARK   90  A    between atoms: _221  and  _222
REMARK   91  A    between atoms: _221  and  _224
REMARK   92  A    between atoms: _227  and  _229
REMARK   93  A    between atoms: _229  and  _230
REMARK   94  A    between atoms: _229  and  _232
REMARK   95  A    between atoms: _232  and  _233
REMARK   96  A    between atoms: _243  and  _245
REMARK   97  A    between atoms: _245  and  _246
REMARK   98  A    between atoms: _248  and  _250
REMARK   99  A    between atoms: _250  and  _251
REMARK  100  A    between atoms: _250  and  _253
REMARK  101  A    between atoms: _253  and  _254
REMARK  102  A    between atoms: _259  and  _260
REMARK  103  A    between atoms: _262  and  _264
REMARK  104  A    between atoms: _264  and  _265
REMARK  105  A    between atoms: _264  and  _267
REMARK  106  A    between atoms: _267  and  _268
REMARK  107  A    between atoms: _268  and  _269
REMARK  108  A    between atoms: _269  and  _270
REMARK  109  A    between atoms: _270  and  _271
REMARK  110  A    between atoms: _275  and  _277
REMARK  111  A    between atoms: _277  and  _278
REMARK  112  A    between atoms: _277  and  _280
REMARK  113  A    between atoms: _280  and  _281
REMARK  114  A    between atoms: _284  and  _286
REMARK  115  A    between atoms: _286  and  _287
REMARK  116  A    between atoms: _286  and  _289
REMARK  117  A    between atoms: _289  and  _290
REMARK  118  A    between atoms: _293  and  _295
REMARK  119  A    between atoms: _295  and  _296
REMARK  120  A    between atoms: _295  and  _298
REMARK  121  A    between atoms: _298  and  _299
REMARK  122  A    between atoms: _299  and  _300
REMARK  123  A    between atoms: _300  and  _301
REMARK  124  A    between atoms: _301  and  _302
REMARK  125  A    between atoms: _306  and  _308
REMARK  126  A    between atoms: _308  and  _309
REMARK  127  A    between atoms: _308  and  _311
REMARK  128  A    between atoms: _311  and  _312
REMARK  129  A    between atoms: _315  and  _317
REMARK  130  A    between atoms: _317  and  _318
REMARK  131  A    between atoms: _317  and  _320
REMARK  132  A    between atoms: _320  and  _321
REMARK  133  A    between atoms: _321  and  _322
REMARK  134  A    between atoms: _327  and  _329
REMARK  135  A    between atoms: _329  and  _330
REMARK  136  A    between atoms: _329  and  _332
REMARK  137  A    between atoms: _332  and  _333
REMARK  138  A    between atoms: _338  and  _339
REMARK  139  A    between atoms: _341  and  _343
REMARK  140  A    between atoms: _343  and  _344
REMARK  141  A    between atoms: _343  and  _346
REMARK  142  A    between atoms: _346  and  _347
REMARK  143  A    between atoms: _350  and  _352
REMARK  144  A    between atoms: _352  and  _353
REMARK  145  A    between atoms: _352  and  _355
REMARK  146  A    between atoms: _357  and  _359
REMARK  147  A    between atoms: _359  and  _360
REMARK  148  A    between atoms: _363  and  _365
REMARK  149  A    between atoms: _365  and  _366
REMARK  150  A    between atoms: _365  and  _368
REMARK  151  A    between atoms: _368  and  _369
REMARK  152  A    between atoms: _369  and  _370
REMARK  153  A    between atoms: _370  and  _371
REMARK  154  A    between atoms: _371  and  _372
REMARK  155  A    between atoms: _376  and  _378
REMARK  156  A    between atoms: _378  and  _379
REMARK  157  A    between atoms: _378  and  _381
REMARK  158  A    between atoms: _381  and  _382
REMARK  159  A    between atoms: _385  and  _387
REMARK  160  A    between atoms: _387  and  _388
REMARK  161  A    between atoms: _391  and  _393
REMARK  162  A    between atoms: _393  and  _394
REMARK  163  A    between atoms: _393  and  _396
REMARK  164  A    between atoms: _396  and  _397
REMARK  165  A    between atoms: _397  and  _511
REMARK  166  A    between atoms: _398  and  _400
REMARK  167  A    between atoms: _400  and  _401
REMARK  168  A    between atoms: _400  and  _403
REMARK  169  A    between atoms: _403  and  _404
REMARK  170  A    between atoms: _404  and  _405
REMARK  171  A    between atoms: _405  and  _406
REMARK  172  A    between atoms: _406  and  _407
REMARK  173  A    between atoms: _411  and  _413
REMARK  174  A    between atoms: _413  and  _414
REMARK  175  A    between atoms: _416  and  _418
REMARK  176  A    between atoms: _418  and  _419
REMARK  177  A    between atoms: _418  and  _421
REMARK  178  A    between atoms: _421  and  _422
REMARK  179  A    between atoms: _425  and  _427
REMARK  180  A    between atoms: _427  and  _428
REMARK  181  A    between atoms: _427  and  _430
REMARK  182  A    between atoms: _430  and  _431
REMARK  183  A    between atoms: _433  and  _435
REMARK  184  A    between atoms: _435  and  _436
REMARK  185  A    between atoms: _438  and  _440
REMARK  186  A    between atoms: _440  and  _441
REMARK  187  A    between atoms: _443  and  _445
REMARK  188  A    between atoms: _445  and  _446
REMARK  189  A    between atoms: _445  and  _448
REMARK  190  A    between atoms: _448  and  _449
REMARK  191  A    between atoms: _452  and  _454
REMARK  192  A    between atoms: _454  and  _455
REMARK  193  A    between atoms: _454  and  _457
REMARK  194  A    between atoms: _457  and  _458
REMARK  195  A    between atoms: _461  and  _463
REMARK  196  A    between atoms: _463  and  _464
REMARK  197  A    between atoms: _463  and  _466
REMARK  198  A    between atoms: _466  and  _467
REMARK  199  A    between atoms: _469  and  _471
REMARK  200  A    between atoms: _471  and  _472
REMARK  201  A    between atoms: _471  and  _474
REMARK  202  A    between atoms: _474  and  _475
REMARK  203  A    between atoms: _485  and  _487
REMARK  204  A    between atoms: _487  and  _488
REMARK  205  A    between atoms: _490  and  _492
REMARK  206  A    between atoms: _492  and  _493
REMARK  207  A    between atoms: _492  and  _495
REMARK  208  A    between atoms: _495  and  _496
REMARK  209  A    between atoms: _496  and  _497
REMARK  210  A    between atoms: _500  and  _502
REMARK  211  A    between atoms: _502  and  _503
REMARK  212  A    between atoms: _505  and  _507
REMARK  213  A    between atoms: _507  and  _508
REMARK  214  A    between atoms: _507  and  _510
REMARK  215  A    between atoms: _510  and  _511
REMARK  216  A    between atoms: _512  and  _514
REMARK  217  A    between atoms: _514  and  _515
REMARK  218  A    between atoms: _518  and  _520
REMARK  219  A    between atoms: _520  and  _521
REMARK  220  A    between atoms: _520  and  _523
REMARK  221  A    between atoms: _523  and  _524
REMARK  222  A    between atoms: _524  and  _525
REMARK  223  A    between atoms: _530  and  _532
REMARK  224  A    between atoms: _532  and  _533
REMARK  225  A    between atoms: _532  and  _535
REMARK  226  A    between atoms: _535  and  _536
REMARK  227  A    between atoms: _536  and  _537
REMARK  228  A    between atoms: _537  and  _538
REMARK  229  A    between atoms: _548  and  _549
REMARK  230  A    between atoms: _554  and  _556
REMARK  231  A    between atoms: _556  and  _557
REMARK  232  A    between atoms: _559  and  _561
REMARK  233  A    between atoms: _561  and  _562
REMARK  234  A    between atoms: _561  and  _564
REMARK  235  A    between atoms: _567  and  _569
REMARK  236  A    between atoms: _569  and  _570
REMARK  237  A    between atoms: _569  and  _572
REMARK  238  A    between atoms: _572  and  _573
REMARK  239  A    between atoms: _578  and  _579
REMARK  240  A    between atoms: _581  and  _583
REMARK  241  A    between atoms: _583  and  _584
REMARK  242  A    between atoms: _583  and  _586
REMARK  243  A    between atoms: _586  and  _587
REMARK                            x       y       z     vdW  Elec       q    Type
REMARK                         _______ _______ _______ _____ _____    ______ ____
ROOT
ATOM      1  CA  LYS A   1      45.811  -9.558  27.788  0.00  0.00    +0.145 C 
ENDROOT
BRANCH   1   2
ATOM      2  C   LYS A   1      45.924 -10.897  27.092  0.00  0.00    +0.238 C 
ATOM      3  O   LYS A   1      46.336 -11.877  27.719  0.00  0.00    -0.274 OA
ATOM      4  N   LEU A   2      45.554 -10.956  25.797  0.00  0.00    -0.298 N 
ATOM      5  H   LEU A   2      45.232 -10.083  25.332  0.00  0.00    +0.150 HD
BRANCH   4   6
ATOM      6  CA  LEU A   2      45.585 -12.190  25.018  0.00  0.00    +0.137 C 
BRANCH   6   7
ATOM      7  C   LEU A   2      46.894 -12.982  25.120  0.00  0.00    +0.227 C 
ATOM      8  O   LEU A   2      46.859 -14.203  25.260  0.00  0.00    -0.286 OA
ENDBRANCH   6   7
BRANCH   6   9
ATOM      9  CB  LEU A   2      45.200 -11.916  23.548  0.00  0.00    +0.028 C 
BRANCH   9  10
ATOM     10  CG  LEU A   2      44.283 -12.932  22.858  0.00  0.00    +0.002 C 
ATOM     11  CD2 LEU A   2      43.127 -13.370  23.733  0.00  0.00    +0.000 C 
ATOM     12  CD1 LEU A   2      43.725 -12.355  21.564  0.00  0.00    +0.000 C 
ENDBRANCH   9  10
ENDBRANCH   6   9
ENDBRANCH   4   6
ENDBRANCH   1   2
BRANCH   1  13
ATOM     13  N   LYS A   1      45.914  -9.769  29.244  0.00  0.00    -0.238 NA
ATOM     14  H   LYS A   1      46.297 -10.685  29.554  0.00  0.00    +0.142 HD
ENDBRANCH   1  13
BRANCH   1  15
ATOM     15  CB  LYS A   1      46.845  -8.543  27.250  0.00  0.00    +0.026 C 
BRANCH  15  16
ATOM     16  CG  LYS A   1      48.294  -8.822  27.662  0.00  0.00    -0.000 C 
BRANCH  16  17
ATOM     17  CD  LYS A   1      49.212  -7.686  27.275  0.00  0.00    -0.024 C 
BRANCH  17  18
ATOM     18  CE  LYS A   1      50.642  -8.137  27.078  0.00  0.00    -0.086 C 
BRANCH  18  19
ATOM     19  NZ  LYS A   1      51.328  -8.445  28.361  0.00  0.00    +0.380 N 
ATOM     20  HZ1 LYS A   1      51.341  -7.594  28.959  0.00  0.00    -0.089 HD
ATOM     21  HZ2 LYS A   1      50.818  -9.207  28.851  0.00  0.00    -0.089 HD
ATOM     22  HZ3 LYS A   1      52.304  -8.749  28.167  0.00  0.00    -0.089 HD
ENDBRANCH  18  19
ENDBRANCH  17  18
ENDBRANCH  16  17
ENDBRANCH  15  16
ENDBRANCH   1  15
TORSDOF 11
REMARK  Name = ../refined-set-2016/4x6o/4x6o_pocket.pdb
REMARK  243 active torsions:
REMARK  status: ('A' for Active; 'I' for Inactive)
REMARK    1  A    between atoms: _1  and  _5
REMARK    2  A    between atoms: _5  and  _6
REMARK    3  A    between atoms: _5  and  _8
REMARK    4  A    between atoms: _8  and  _9
REMARK    5  A    between atoms: _12  and  _14
REMARK    6  A    between atoms: _14  and  _15
REMARK    7  A    between atoms: _14  and  _17
REMARK    8  A    between atoms: _20  and  _22
REMARK    9  A    between atoms: _22  and  _23
REMARK   10  A    between atoms: _22  and  _25
REMARK   11  A    between atoms: _25  and  _26
REMARK   12  A    between atoms: _29  and  _31
REMARK   13  A    between atoms: _31  and  _32
REMARK   14  A    between atoms: _31  and  _34
REMARK   15  A    between atoms: _34  and  _35
REMARK   16  A    between atoms: _38  and  _40
REMARK   17  A    between atoms: _40  and  _41
REMARK   18  A    between atoms: _40  and  _43
REMARK   19  A    between atoms: _43  and  _44
REMARK   20  A    between atoms: _49  and  _51
REMARK   21  A    between atoms: _51  and  _52
REMARK   22  A    between atoms: _51  and  _54
REMARK   23  A    between atoms: _54  and  _55
REMARK   24  A    between atoms: _58  and  _60
REMARK   25  A    between atoms: _60  and  _61
REMARK   26  A    between atoms: _60  and  _63
REMARK   27  A    between atoms: _63  and  _64
REMARK   28  A    between atoms: _67  and  _69
REMARK   29  A    between atoms: _69  and  _70
REMARK   30  A    between atoms: _69  and  _72
REMARK   31  A    between atoms: _72  and  _73
REMARK   32  A    between atoms: _73  and  _74
REMARK   33  A    between atoms: _79  and  _81
REMARK   34  A    between atoms: _81  and  _82
REMARK   35  A    between atoms: _81  and  _84
REMARK   36  A    between atoms: _84  and  _85
REMARK   37  A    between atoms: _85  and  _86
REMARK   38  A    between atoms: _86  and  _87
REMARK   39  A    between atoms: _96  and  _98
REMARK   40  A    between atoms: _98  and  _99
REMARK   41  A    between atoms: _98  and  _101
REMARK   42  A    between atoms: _101  and  _102
REMARK   43  A    between atoms: _107  and  _109
REMARK   44  A    between atoms: _109  and  _110
REMARK   45  A    between atoms: _109  and  _112
REMARK   46  A    between atoms: _112  and  _113
REMARK   47  A    between atoms: _116  and  _118
REMARK   48  A    between atoms: _118  and  _119
REMARK   49  A    between atoms: _118  and  _121
REMARK   50  A    between atoms: _121  and  _122
REMARK   51  A    between atoms: _122  and  _157
REMARK   52  A    between atoms: _123  and  _125
REMARK   53  A    between atoms: _125  and  _126
REMARK   54  A    between atoms: _128  and  _130
REMARK   55  A    between atoms: _130  and  _131
REMARK   56  A    between atoms: _134  and  _136
REMARK   57  A    between atoms: _136  and  _137
REMARK   58  A    between atoms: _140  and  _142
REMARK   59  A    between atoms: _142  and  _143
REMARK   60  A    between atoms: _142  and  _145
REMARK   61  A    between atoms: _145  and  _146
REMARK   62  A    between atoms: _151  and  _153
REMARK   63  A    between atoms: _153  and  _154
REMARK   64  A    between atoms: _153  and  _156
REMARK   65  A    between atoms: _156  and  _157
REMARK   66  A    between atoms: _158  and  _160
REMARK   67  A    between atoms: _160  and  _161
REMARK   68  A    between atoms: _160  and  _163
REMARK   69  A    between atoms: _163  and  _164
REMARK   70  A    between atoms: _170  and  _172
REMARK   71  A    between atoms: _172  and  _173
REMARK   72  A    between atoms: _172  and  _175
REMARK   73  A    between atoms: _175  and  _176
REMARK   74  A    between atoms: _181  and  _182
REMARK   75  A    between atoms: _184  and  _186
REMARK   76  A    between atoms: _186  and  _187
REMARK   77  A    between atoms: _186  and  _189
REMARK   78  A    between atoms: _192  and  _194
REMARK   79  A    between atoms: _194  and  _195
REMARK   80  A    between atoms: _194  and  _197
REMARK   81  A    between atoms: _197  and  _198
REMARK   82  A    between atoms: _198  and  _199
REMARK   83  A    between atoms: _204  and  _206
REMARK   84  A    between atoms: _206  and  _207
REMARK   85  A    between atoms: _210  and  _212
REMARK   86  A    between atoms: _212  and  _213
REMARK   87  A    between atoms: _212  and  _215
REMARK   88  A    between atoms: _215  and  _216
REMARK   89  A    between atoms: _219  and  _221
REMARK   90  A    between atoms: _221  and  _222
REMARK   91  A    between atoms: _221  and  _224
REMARK   92  A    between atoms: _227  and  _229
REMARK   93  A    between atoms: _229  and  _230
REMARK   94  A    between atoms: _229  and  _232
REMARK   95  A    between atoms: _232  and  _233
REMARK   96  A    between atoms: _243  and  _245
REMARK   97  A    between atoms: _245  and  _246
REMARK   98  A    between atoms: _248  and  _250
REMARK   99  A    between atoms: _250  and  _251
REMARK  100  A    between atoms: _250  and  _253
REMARK  101  A    between atoms: _253  and  _254
REMARK  102  A    between atoms: _259  and  _260
REMARK  103  A    between atoms: _262  and  _264
REMARK  104  A    between atoms: _264  and  _265
REMARK  105  A    between atoms: _264  and  _267
REMARK  106  A    between atoms: _267  and  _268
REMARK  107  A    between atoms: _268  and  _269
REMARK  108  A    between atoms: _269  and  _270
REMARK  109  A    between atoms: _270  and  _271
REMARK  110  A    between atoms: _275  and  _277
REMARK  111  A    between atoms: _277  and  _278
REMARK  112  A    between atoms: _277  and  _280
REMARK  113  A    between atoms: _280  and  _281
REMARK  114  A    between atoms: _284  and  _286
REMARK  115  A    between atoms: _286  and  _287
REMARK  116  A    between atoms: _286  and  _289
REMARK  117  A    between atoms: _289  and  _290
REMARK  118  A    between atoms: _293  and  _295
REMARK  119  A    between atoms: _295  and  _296
REMARK  120  A    between atoms: _295  and  _298
REMARK  121  A    between atoms: _298  and  _299
REMARK  122  A    between atoms: _299  and  _300
REMARK  123  A    between atoms: _300  and  _301
REMARK  124  A    between atoms: _301  and  _302
REMARK  125  A    between atoms: _306  and  _308
REMARK  126  A    between atoms: _308  and  _309
REMARK  127  A    between atoms: _308  and  _311
REMARK  128  A    between atoms: _311  and  _312
REMARK  129  A    between atoms: _315  and  _317
REMARK  130  A    between atoms: _317  and  _318
REMARK  131  A    between atoms: _317  and  _320
REMARK  132  A    between atoms: _320  and  _321
REMARK  133  A    between atoms: _321  and  _322
REMARK  134  A    between atoms: _327  and  _329
REMARK  135  A    between atoms: _329  and  _330
REMARK  136  A    between atoms: _329  and  _332
REMARK  137  A    between atoms: _332  and  _333
REMARK  138  A    between atoms: _338  and  _339
REMARK  139  A    between atoms: _341  and  _343
REMARK  140  A    between atoms: _343  and  _344
REMARK  141  A    between atoms: _343  and  _346
REMARK  142  A    between atoms: _346  and  _347
REMARK  143  A    between atoms: _350  and  _352
REMARK  144  A    between atoms: _352  and  _353
REMARK  145  A    between atoms: _352  and  _355
REMARK  146  A    between atoms: _357  and  _359
REMARK  147  A    between atoms: _359  and  _360
REMARK  148  A    between atoms: _363  and  _365
REMARK  149  A    between atoms: _365  and  _366
REMARK  150  A    between atoms: _365  and  _368
REMARK  151  A    between atoms: _368  and  _369
REMARK  152  A    between atoms: _369  and  _370
REMARK  153  A    between atoms: _370  and  _371
REMARK  154  A    between atoms: _371  and  _372
REMARK  155  A    between atoms: _376  and  _378
REMARK  156  A    between atoms: _378  and  _379
REMARK  157  A    between atoms: _378  and  _381
REMARK  158  A    between atoms: _381  and  _382
REMARK  159  A    between atoms: _385  and  _387
REMARK  160  A    between atoms: _387  and  _388
REMARK  161  A    between atoms: _391  and  _393
REMARK  162  A    between atoms: _393  and  _394
REMARK  163  A    between atoms: _393  and  _396
REMARK  164  A    between atoms: _396  and  _397
REMARK  165  A    between atoms: _397  and  _511
REMARK  166  A    between atoms: _398  and  _400
REMARK  167  A    between atoms: _400  and  _401
REMARK  168  A    between atoms: _400  and  _403
REMARK  169  A    between atoms: _403  and  _404
REMARK  170  A    between atoms: _404  and  _405
REMARK  171  A    between atoms: _405  and  _406
REMARK  172  A    between atoms: _406  and  _407
REMARK  173  A    between atoms: _411  and  _413
REMARK  174  A    between atoms: _413  and  _414
REMARK  175  A    between atoms: _416  and  _418
REMARK  176  A    between atoms: _418  and  _419
REMARK  177  A    between atoms: _418  and  _421
REMARK  178  A    between atoms: _421  and  _422
REMARK  179  A    between atoms: _425  and  _427
REMARK  180  A    between atoms: _427  and  _428
REMARK  181  A    between atoms: _427  and  _430
REMARK  182  A    between atoms: _430  and  _431
REMARK  183  A    between atoms: _433  and  _435
REMARK  184  A    between atoms: _435  and  _436
REMARK  185  A    between atoms: _438  and  _440
REMARK  186  A    between atoms: _440  and  _441
REMARK  187  A    between atoms: _443  and  _445
REMARK  188  A    between atoms: _445  and  _446
REMARK  189  A    between atoms: _445  and  _448
REMARK  190  A    between atoms: _448  and  _449
REMARK  191  A    between atoms: _452  and  _454
REMARK  192  A    between atoms: _454  and  _455
REMARK  193  A    between atoms: _454  and  _457
REMARK  194  A    between atoms: _457  and  _458
REMARK  195  A    between atoms: _461  and  _463
REMARK  196  A    between atoms: _463  and  _464
REMARK  197  A    between atoms: _463  and  _466
REMARK  198  A    between atoms: _466  and  _467
REMARK  199  A    between atoms: _469  and  _471
REMARK  200  A    between atoms: _471  and  _472
REMARK  201  A    between atoms: _471  and  _474
REMARK  202  A    between atoms: _474  and  _475
REMARK  203  A    between atoms: _485  and  _487
REMARK  204  A    between atoms: _487  and  _488
REMARK  205  A    between atoms: _490  and  _492
REMARK  206  A    between atoms: _492  and  _493
REMARK  207  A    between atoms: _492  and  _495
REMARK  208  A    between atoms: _495  and  _496
REMARK  209  A    between atoms: _496  and  _497
REMARK  210  A    between atoms: _500  and  _502
REMARK  211  A    between atoms: _502  and  _503
REMARK  212  A    between atoms: _505  and  _507
REMARK  213  A    between atoms: _507  and  _508
REMARK  214  A    between atoms: _507  and  _510
REMARK  215  A    between atoms: _510  and  _511
REMARK  216  A    between atoms: _512  and  _514
REMARK  217  A    between atoms: _514  and  _515
REMARK  218  A    between atoms: _518  and  _520
REMARK  219  A    between atoms: _520  and  _521
REMARK  220  A    between atoms: _520  and  _523
REMARK  221  A    between atoms: _523  and  _524
REMARK  222  A    between atoms: _524  and  _525
REMARK  223  A    between atoms: _530  and  _532
REMARK  224  A    between atoms: _532  and  _533
REMARK  225  A    between atoms: _532  and  _535
REMARK  226  A    between atoms: _535  and  _536
REMARK  227  A    between atoms: _536  and  _537
REMARK  228  A    between atoms: _537  and  _538
REMARK  229  A    between atoms: _548  and  _549
REMARK  230  A    between atoms: _554  and  _556
REMARK  231  A    between atoms: _556  and  _557
REMARK  232  A    between atoms: _559  and  _561
REMARK  233  A    between atoms: _561  and  _562
REMARK  234  A    between atoms: _561  and  _564
REMARK  235  A    between atoms: _567  and  _569
REMARK  236  A    between atoms: _569  and  _570
REMARK  237  A    between atoms: _569  and  _572
REMARK  238  A    between atoms: _572  and  _573
REMARK  239  A    between atoms: _578  and  _579
REMARK  240  A    between atoms: _581  and  _583
REMARK  241  A    between atoms: _583  and  _584
REMARK  242  A    between atoms: _583  and  _586
REMARK  243  A    between atoms: _586  and  _587
REMARK                            x       y       z     vdW  Elec       q    Type
REMARK                         _______ _______ _______ _____ _____    ______ ____
ROOT
ATOM      1  C   LYS A   2      49.626 -15.437  32.925  0.00  0.00    +0.241 C 
ATOM      2  N   ILE A   3      49.407 -16.568  33.598  0.00  0.00    -0.297 N 
ATOM      3  H   ILE A   3      49.858 -17.440  33.256  0.00  0.00    +0.150 HD
ATOM      4  O   LYS A   2      49.099 -14.369  33.216  0.00  0.00    -0.273 OA
ENDROOT
BRANCH   2   5
ATOM      5  CA  ILE A   3      48.561 -16.646  34.798  0.00  0.00    +0.149 C 
BRANCH   5   6
ATOM      6  C   ILE A   3      49.116 -15.670  35.842  0.00  0.00    +0.241 C 
ATOM      7  N   GLN A   4      48.240 -14.907  36.486  0.00  0.00    -0.298 N 
ATOM      8  H   GLN A   4      47.227 -15.000  36.269  0.00  0.00    +0.150 HD
ATOM      9  O   ILE A   3      50.337 -15.559  35.987  0.00  0.00    -0.273 OA
BRANCH   7  10
ATOM     10  CA  GLN A   4      48.670 -13.942  37.490  0.00  0.00    +0.137 C 
BRANCH  10  11
ATOM     11  C   GLN A   4      48.812 -14.606  38.871  0.00  0.00    +0.227 C 
ATOM     12  O   GLN A   4      48.078 -15.543  39.196  0.00  0.00    -0.286 OA
ENDBRANCH  10  11
BRANCH  10  13
ATOM     13  CB  GLN A   4      47.700 -12.748  37.535  0.00  0.00    +0.037 C 
BRANCH  13  14
ATOM     14  CG  GLN A   4      47.597 -12.014  36.190  0.00  0.00    +0.087 C 
BRANCH  14  15
ATOM     15  CD  GLN A   4      48.935 -11.444  35.789  0.00  0.00    +0.219 C 
ATOM     16  OE1 GLN A   4      49.458 -10.560  36.457  0.00  0.00    -0.275 OA
ATOM     17  NE2 GLN A   4      49.546 -11.982  34.733  0.00  0.00    -0.329 N 
ATOM     18 HE21 GLN A   4      50.493 -11.653  34.456  0.00  0.00    +0.145 HD
ATOM     19 HE22 GLN A   4      49.076 -12.731  34.186  0.00  0.00    +0.145 HD
ENDBRANCH  14  15
ENDBRANCH  13  14
ENDBRANCH  10  13
ENDBRANCH   7  10
ENDBRANCH   5   6
BRANCH   5  20
ATOM     20  CB  ILE A   3      48.482 -18.126  35.298  0.00  0.00    +0.027 C 
ATOM     21  CG2 ILE A   3      48.001 -18.272  36.782  0.00  0.00    +0.002 C 
BRANCH  20  22
ATOM     22  CG1 ILE A   3      47.606 -18.963  34.351  0.00  0.00    +0.002 C 
ATOM     23  CD1 ILE A   3      46.203 -18.362  33.963  0.00  0.00    +0.000 C 
ENDBRANCH  20  22
ENDBRANCH   5  20
ENDBRANCH   2   5
BRANCH   1  24
ATOM     24  CA  LYS A   2      50.579 -15.515  31.742  0.00  0.00    +0.149 C 
BRANCH  24  26
ATOM     25  C   ASP A   1      50.517 -14.362  29.588  0.00  0.00    +0.239 C 
ATOM     26  N   LYS A   2      50.361 -14.354  30.906  0.00  0.00    -0.297 N 
ATOM     27  H   LYS A   2      50.067 -13.467  31.362  0.00  0.00    +0.150 HD
ATOM     28  O   ASP A   1      50.891 -15.354  28.972  0.00  0.00    -0.274 OA
BRANCH  25  29
ATOM     29  CA  ASP A   1      50.251 -13.058  28.856  0.00  0.00    +0.156 C 
BRANCH  29  30
ATOM     30  N   ASP A   1      49.764 -13.372  27.522  0.00  0.00    -0.238 NA
ATOM     31  H   ASP A   1      49.258 -14.268  27.368  0.00  0.00    +0.142 HD
ENDBRANCH  29  30
BRANCH  29  32
ATOM     32  CB  ASP A   1      49.207 -12.166  29.576  0.00  0.00    +0.140 C 
BRANCH  32  33
ATOM     33  CG  ASP A   1      49.697 -11.386  30.784  0.00  0.00    +0.367 C 
ATOM     34  OD2 ASP A   1      48.858 -11.033  31.638  0.00  0.00    -0.246 OA
ATOM     35  OD1 ASP A   1      50.921 -11.160  30.892  0.00  0.00    -0.246 OA
ENDBRANCH  32  33
ENDBRANCH  29  32
ENDBRANCH  25  29
ENDBRANCH  24  26
BRANCH  24  36
ATOM     36  CB  LYS A   2      52.060 -15.605  32.199  0.00  0.00    +0.029 C 
BRANCH  36  37
ATOM     37  CG  LYS A   2      52.543 -14.444  33.050  0.00  0.00    +0.000 C 
BRANCH  37  38
ATOM     38  CD  LYS A   2      53.824 -14.801  33.799  0.00  0.00    -0.024 C 
BRANCH  38  39
ATOM     39  CE  LYS A   2      55.075 -14.188  33.197  0.00  0.00    -0.086 C 
BRANCH  39  40
ATOM     40  NZ  LYS A   2      55.174 -12.724  33.453  0.00  0.00    +0.380 N 
ATOM     41  HZ1 LYS A   2      55.195 -12.553  34.479  0.00  0.00    -0.089 HD
ATOM     42  HZ2 LYS A   2      54.350 -12.244  33.037  0.00  0.00    -0.089 HD
ATOM     43  HZ3 LYS A   2      56.045 -12.356  33.021  0.00  0.00    -0.089 HD
ENDBRANCH  39  40
ENDBRANCH  38  39
ENDBRANCH  37  38
ENDBRANCH  36  37
ENDBRANCH  24  36
ENDBRANCH   1  24
TORSDOF 20
REMARK  Name = ../refined-set-2016/4x6o/4x6o_pocket.pdb
REMARK  243 active torsions:
REMARK  status: ('A' for Active; 'I' for Inactive)
REMARK    1  A    between atoms: _1  and  _5
REMARK    2  A    between atoms: _5  and  _6
REMARK    3  A    between atoms: _5  and  _8
REMARK    4  A    between atoms: _8  and  _9
REMARK    5  A    between atoms: _12  and  _14
REMARK    6  A    between atoms: _14  and  _15
REMARK    7  A    between atoms: _14  and  _17
REMARK    8  A    between atoms: _20  and  _22
REMARK    9  A    between atoms: _22  and  _23
REMARK   10  A    between atoms: _22  and  _25
REMARK   11  A    between atoms: _25  and  _26
REMARK   12  A    between atoms: _29  and  _31
REMARK   13  A    between atoms: _31  and  _32
REMARK   14  A    between atoms: _31  and  _34
REMARK   15  A    between atoms: _34  and  _35
REMARK   16  A    between atoms: _38  and  _40
REMARK   17  A    between atoms: _40  and  _41
REMARK   18  A    between atoms: _40  and  _43
REMARK   19  A    between atoms: _43  and  _44
REMARK   20  A    between atoms: _49  and  _51
REMARK   21  A    between atoms: _51  and  _52
REMARK   22  A    between atoms: _51  and  _54
REMARK   23  A    between atoms: _54  and  _55
REMARK   24  A    between atoms: _58  and  _60
REMARK   25  A    between atoms: _60  and  _61
REMARK   26  A    between atoms: _60  and  _63
REMARK   27  A    between atoms: _63  and  _64
REMARK   28  A    between atoms: _67  and  _69
REMARK   29  A    between atoms: _69  and  _70
REMARK   30  A    between atoms: _69  and  _72
REMARK   31  A    between atoms: _72  and  _73
REMARK   32  A    between atoms: _73  and  _74
REMARK   33  A    between atoms: _79  and  _81
REMARK   34  A    between atoms: _81  and  _82
REMARK   35  A    between atoms: _81  and  _84
REMARK   36  A    between atoms: _84  and  _85
REMARK   37  A    between atoms: _85  and  _86
REMARK   38  A    between atoms: _86  and  _87
REMARK   39  A    between atoms: _96  and  _98
REMARK   40  A    between atoms: _98  and  _99
REMARK   41  A    between atoms: _98  and  _101
REMARK   42  A    between atoms: _101  and  _102
REMARK   43  A    between atoms: _107  and  _109
REMARK   44  A    between atoms: _109  and  _110
REMARK   45  A    between atoms: _109  and  _112
REMARK   46  A    between atoms: _112  and  _113
REMARK   47  A    between atoms: _116  and  _118
REMARK   48  A    between atoms: _118  and  _119
REMARK   49  A    between atoms: _118  and  _121
REMARK   50  A    between atoms: _121  and  _122
REMARK   51  A    between atoms: _122  and  _157
REMARK   52  A    between atoms: _123  and  _125
REMARK   53  A    between atoms: _125  and  _126
REMARK   54  A    between atoms: _128  and  _130
REMARK   55  A    between atoms: _130  and  _131
REMARK   56  A    between atoms: _134  and  _136
REMARK   57  A    between atoms: _136  and  _137
REMARK   58  A    between atoms: _140  and  _142
REMARK   59  A    between atoms: _142  and  _143
REMARK   60  A    between atoms: _142  and  _145
REMARK   61  A    between atoms: _145  and  _146
REMARK   62  A    between atoms: _151  and  _153
REMARK   63  A    between atoms: _153  and  _154
REMARK   64  A    between atoms: _153  and  _156
REMARK   65  A    between atoms: _156  and  _157
REMARK   66  A    between atoms: _158  and  _160
REMARK   67  A    between atoms: _160  and  _161
REMARK   68  A    between atoms: _160  and  _163
REMARK   69  A    between atoms: _163  and  _164
REMARK   70  A    between atoms: _170  and  _172
REMARK   71  A    between atoms: _172  and  _173
REMARK   72  A    between atoms: _172  and  _175
REMARK   73  A    between atoms: _175  and  _176
REMARK   74  A    between atoms: _181  and  _182
REMARK   75  A    between atoms: _184  and  _186
REMARK   76  A    between atoms: _186  and  _187
REMARK   77  A    between atoms: _186  and  _189
REMARK   78  A    between atoms: _192  and  _194
REMARK   79  A    between atoms: _194  and  _195
REMARK   80  A    between atoms: _194  and  _197
REMARK   81  A    between atoms: _197  and  _198
REMARK   82  A    between atoms: _198  and  _199
REMARK   83  A    between atoms: _204  and  _206
REMARK   84  A    between atoms: _206  and  _207
REMARK   85  A    between atoms: _210  and  _212
REMARK   86  A    between atoms: _212  and  _213
REMARK   87  A    between atoms: _212  and  _215
REMARK   88  A    between atoms: _215  and  _216
REMARK   89  A    between atoms: _219  and  _221
REMARK   90  A    between atoms: _221  and  _222
REMARK   91  A    between atoms: _221  and  _224
REMARK   92  A    between atoms: _227  and  _229
REMARK   93  A    between atoms: _229  and  _230
REMARK   94  A    between atoms: _229  and  _232
REMARK   95  A    between atoms: _232  and  _233
REMARK   96  A    between atoms: _243  and  _245
REMARK   97  A    between atoms: _245  and  _246
REMARK   98  A    between atoms: _248  and  _250
REMARK   99  A    between atoms: _250  and  _251
REMARK  100  A    between atoms: _250  and  _253
REMARK  101  A    between atoms: _253  and  _254
REMARK  102  A    between atoms: _259  and  _260
REMARK  103  A    between atoms: _262  and  _264
REMARK  104  A    between atoms: _264  and  _265
REMARK  105  A    between atoms: _264  and  _267
REMARK  106  A    between atoms: _267  and  _268
REMARK  107  A    between atoms: _268  and  _269
REMARK  108  A    between atoms: _269  and  _270
REMARK  109  A    between atoms: _270  and  _271
REMARK  110  A    between atoms: _275  and  _277
REMARK  111  A    between atoms: _277  and  _278
REMARK  112  A    between atoms: _277  and  _280
REMARK  113  A    between atoms: _280  and  _281
REMARK  114  A    between atoms: _284  and  _286
REMARK  115  A    between atoms: _286  and  _287
REMARK  116  A    between atoms: _286  and  _289
REMARK  117  A    between atoms: _289  and  _290
REMARK  118  A    between atoms: _293  and  _295
REMARK  119  A    between atoms: _295  and  _296
REMARK  120  A    between atoms: _295  and  _298
REMARK  121  A    between atoms: _298  and  _299
REMARK  122  A    between atoms: _299  and  _300
REMARK  123  A    between atoms: _300  and  _301
REMARK  124  A    between atoms: _301  and  _302
REMARK  125  A    between atoms: _306  and  _308
REMARK  126  A    between atoms: _308  and  _309
REMARK  127  A    between atoms: _308  and  _311
REMARK  128  A    between atoms: _311  and  _312
REMARK  129  A    between atoms: _315  and  _317
REMARK  130  A    between atoms: _317  and  _318
REMARK  131  A    between atoms: _317  and  _320
REMARK  132  A    between atoms: _320  and  _321
REMARK  133  A    between atoms: _321  and  _322
REMARK  134  A    between atoms: _327  and  _329
REMARK  135  A    between atoms: _329  and  _330
REMARK  136  A    between atoms: _329  and  _332
REMARK  137  A    between atoms: _332  and  _333
REMARK  138  A    between atoms: _338  and  _339
REMARK  139  A    between atoms: _341  and  _343
REMARK  140  A    between atoms: _343  and  _344
REMARK  141  A    between atoms: _343  and  _346
REMARK  142  A    between atoms: _346  and  _347
REMARK  143  A    between atoms: _350  and  _352
REMARK  144  A    between atoms: _352  and  _353
REMARK  145  A    between atoms: _352  and  _355
REMARK  146  A    between atoms: _357  and  _359
REMARK  147  A    between atoms: _359  and  _360
REMARK  148  A    between atoms: _363  and  _365
REMARK  149  A    between atoms: _365  and  _366
REMARK  150  A    between atoms: _365  and  _368
REMARK  151  A    between atoms: _368  and  _369
REMARK  152  A    between atoms: _369  and  _370
REMARK  153  A    between atoms: _370  and  _371
REMARK  154  A    between atoms: _371  and  _372
REMARK  155  A    between atoms: _376  and  _378
REMARK  156  A    between atoms: _378  and  _379
REMARK  157  A    between atoms: _378  and  _381
REMARK  158  A    between atoms: _381  and  _382
REMARK  159  A    between atoms: _385  and  _387
REMARK  160  A    between atoms: _387  and  _388
REMARK  161  A    between atoms: _391  and  _393
REMARK  162  A    between atoms: _393  and  _394
REMARK  163  A    between atoms: _393  and  _396
REMARK  164  A    between atoms: _396  and  _397
REMARK  165  A    between atoms: _397  and  _511
REMARK  166  A    between atoms: _398  and  _400
REMARK  167  A    between atoms: _400  and  _401
REMARK  168  A    between atoms: _400  and  _403
REMARK  169  A    between atoms: _403  and  _404
REMARK  170  A    between atoms: _404  and  _405
REMARK  171  A    between atoms: _405  and  _406
REMARK  172  A    between atoms: _406  and  _407
REMARK  173  A    between atoms: _411  and  _413
REMARK  174  A    between atoms: _413  and  _414
REMARK  175  A    between atoms: _416  and  _418
REMARK  176  A    between atoms: _418  and  _419
REMARK  177  A    between atoms: _418  and  _421
REMARK  178  A    between atoms: _421  and  _422
REMARK  179  A    between atoms: _425  and  _427
REMARK  180  A    between atoms: _427  and  _428
REMARK  181  A    between atoms: _427  and  _430
REMARK  182  A    between atoms: _430  and  _431
REMARK  183  A    between atoms: _433  and  _435
REMARK  184  A    between atoms: _435  and  _436
REMARK  185  A    between atoms: _438  and  _440
REMARK  186  A    between atoms: _440  and  _441
REMARK  187  A    between atoms: _443  and  _445
REMARK  188  A    between atoms: _445  and  _446
REMARK  189  A    between atoms: _445  and  _448
REMARK  190  A    between atoms: _448  and  _449
REMARK  191  A    between atoms: _452  and  _454
REMARK  192  A    between atoms: _454  and  _455
REMARK  193  A    between atoms: _454  and  _457
REMARK  194  A    between atoms: _457  and  _458
REMARK  195  A    between atoms: _461  and  _463
REMARK  196  A    between atoms: _463  and  _464
REMARK  197  A    between atoms: _463  and  _466
REMARK  198  A    between atoms: _466  and  _467
REMARK  199  A    between atoms: _469  and  _471
REMARK  200  A    between atoms: _471  and  _472
REMARK  201  A    between atoms: _471  and  _474
REMARK  202  A    between atoms: _474  and  _475
REMARK  203  A    between atoms: _485  and  _487
REMARK  204  A    between atoms: _487  and  _488
REMARK  205  A    between atoms: _490  and  _492
REMARK  206  A    between atoms: _492  and  _493
REMARK  207  A    between atoms: _492  and  _495
REMARK  208  A    between atoms: _495  and  _496
REMARK  209  A    between atoms: _496  and  _497
REMARK  210  A    between atoms: _500  and  _502
REMARK  211  A    between atoms: _502  and  _503
REMARK  212  A    between atoms: _505  and  _507
REMARK  213  A    between atoms: _507  and  _508
REMARK  214  A    between atoms: _507  and  _510
REMARK  215  A    between atoms: _510  and  _511
REMARK  216  A    between atoms: _512  and  _514
REMARK  217  A    between atoms: _514  and  _515
REMARK  218  A    between atoms: _518  and  _520
REMARK  219  A    between atoms: _520  and  _521
REMARK  220  A    between atoms: _520  and  _523
REMARK  221  A    between atoms: _523  and  _524
REMARK  222  A    between atoms: _524  and  _525
REMARK  223  A    between atoms: _530  and  _532
REMARK  224  A    between atoms: _532  and  _533
REMARK  225  A    between atoms: _532  and  _535
REMARK  226  A    between atoms: _535  and  _536
REMARK  227  A    between atoms: _536  and  _537
REMARK  228  A    between atoms: _537  and  _538
REMARK  229  A    between atoms: _548  and  _549
REMARK  230  A    between atoms: _554  and  _556
REMARK  231  A    between atoms: _556  and  _557
REMARK  232  A    between atoms: _559  and  _561
REMARK  233  A    between atoms: _561  and  _562
REMARK  234  A    between atoms: _561  and  _564
REMARK  235  A    between atoms: _567  and  _569
REMARK  236  A    between atoms: _569  and  _570
REMARK  237  A    between atoms: _569  and  _572
REMARK  238  A    between atoms: _572  and  _573
REMARK  239  A    between atoms: _578  and  _579
REMARK  240  A    between atoms: _581  and  _583
REMARK  241  A    between atoms: _583  and  _584
REMARK  242  A    between atoms: _583  and  _586
REMARK  243  A    between atoms: _586  and  _587
REMARK                            x       y       z     vdW  Elec       q    Type
REMARK                         _______ _______ _______ _____ _____    ______ ____
ROOT
ATOM      1  CG  TYR A   1      28.969 -12.154  20.515  0.00  0.00    -0.020 A 
ATOM      2  CD2 TYR A   1      28.798 -11.519  21.743  0.00  0.00    -0.001 A 
ATOM      3  CE2 TYR A   1      29.882 -11.302  22.606  0.00  0.00    +0.036 A 
ATOM      4  CZ  TYR A   1      31.155 -11.688  22.219  0.00  0.00    +0.134 A 
ATOM      5  CE1 TYR A   1      31.349 -12.301  20.987  0.00  0.00    +0.036 A 
ATOM      6  CD1 TYR A   1      30.257 -12.539  20.152  0.00  0.00    -0.001 A 
ENDROOT
BRANCH   4   7
ATOM      7  OH  TYR A   1      32.236 -11.463  23.035  0.00  0.00    -0.506 OA
ATOM      8  HH  TYR A   1      32.102 -11.933  23.896  0.00  0.00    +0.292 HD
ENDBRANCH   4   7
BRANCH   1   9
ATOM      9  CB  TYR A   1      27.789 -12.415  19.599  0.00  0.00    +0.051 C 
BRANCH   9  10
ATOM     10  CA  TYR A   1      27.779 -11.429  18.400  0.00  0.00    +0.137 C 
BRANCH  10  11
ATOM     11  N   TYR A   1      27.331 -10.118  18.846  0.00  0.00    -0.239 NA
ATOM     12  H   TYR A   1      26.334 -10.001  19.116  0.00  0.00    +0.142 HD
ENDBRANCH  10  11
BRANCH  10  13
ATOM     13  C   TYR A   1      26.997 -11.926  17.207  0.00  0.00    +0.224 C 
ATOM     14  O   TYR A   1      26.256 -12.903  17.297  0.00  0.00    -0.287 OA
ENDBRANCH  10  13
ENDBRANCH   9  10
ENDBRANCH   1   9
TORSDOF 5
REMARK  Name = ../refined-set-2016/4x6o/4x6o_pocket.pdb
REMARK  243 active torsions:
REMARK  status: ('A' for Active; 'I' for Inactive)
REMARK    1  A    between atoms: _1  and  _5
REMARK    2  A    between atoms: _5  and  _6
REMARK    3  A    between atoms: _5  and  _8
REMARK    4  A    between atoms: _8  and  _9
REMARK    5  A    between atoms: _12  and  _14
REMARK    6  A    between atoms: _14  and  _15
REMARK    7  A    between atoms: _14  and  _17
REMARK    8  A    between atoms: _20  and  _22
REMARK    9  A    between atoms: _22  and  _23
REMARK   10  A    between atoms: _22  and  _25
REMARK   11  A    between atoms: _25  and  _26
REMARK   12  A    between atoms: _29  and  _31
REMARK   13  A    between atoms: _31  and  _32
REMARK   14  A    between atoms: _31  and  _34
REMARK   15  A    between atoms: _34  and  _35
REMARK   16  A    between atoms: _38  and  _40
REMARK   17  A    between atoms: _40  and  _41
REMARK   18  A    between atoms: _40  and  _43
REMARK   19  A    between atoms: _43  and  _44
REMARK   20  A    between atoms: _49  and  _51
REMARK   21  A    between atoms: _51  and  _52
REMARK   22  A    between atoms: _51  and  _54
REMARK   23  A    between atoms: _54  and  _55
REMARK   24  A    between atoms: _58  and  _60
REMARK   25  A    between atoms: _60  and  _61
REMARK   26  A    between atoms: _60  and  _63
REMARK   27  A    between atoms: _63  and  _64
REMARK   28  A    between atoms: _67  and  _69
REMARK   29  A    between atoms: _69  and  _70
REMARK   30  A    between atoms: _69  and  _72
REMARK   31  A    between atoms: _72  and  _73
REMARK   32  A    between atoms: _73  and  _74
REMARK   33  A    between atoms: _79  and  _81
REMARK   34  A    between atoms: _81  and  _82
REMARK   35  A    between atoms: _81  and  _84
REMARK   36  A    between atoms: _84  and  _85
REMARK   37  A    between atoms: _85  and  _86
REMARK   38  A    between atoms: _86  and  _87
REMARK   39  A    between atoms: _96  and  _98
REMARK   40  A    between atoms: _98  and  _99
REMARK   41  A    between atoms: _98  and  _101
REMARK   42  A    between atoms: _101  and  _102
REMARK   43  A    between atoms: _107  and  _109
REMARK   44  A    between atoms: _109  and  _110
REMARK   45  A    between atoms: _109  and  _112
REMARK   46  A    between atoms: _112  and  _113
REMARK   47  A    between atoms: _116  and  _118
REMARK   48  A    between atoms: _118  and  _119
REMARK   49  A    between atoms: _118  and  _121
REMARK   50  A    between atoms: _121  and  _122
REMARK   51  A    between atoms: _122  and  _157
REMARK   52  A    between atoms: _123  and  _125
REMARK   53  A    between atoms: _125  and  _126
REMARK   54  A    between atoms: _128  and  _130
REMARK   55  A    between atoms: _130  and  _131
REMARK   56  A    between atoms: _134  and  _136
REMARK   57  A    between atoms: _136  and  _137
REMARK   58  A    between atoms: _140  and  _142
REMARK   59  A    between atoms: _142  and  _143
REMARK   60  A    between atoms: _142  and  _145
REMARK   61  A    between atoms: _145  and  _146
REMARK   62  A    between atoms: _151  and  _153
REMARK   63  A    between atoms: _153  and  _154
REMARK   64  A    between atoms: _153  and  _156
REMARK   65  A    between atoms: _156  and  _157
REMARK   66  A    between atoms: _158  and  _160
REMARK   67  A    between atoms: _160  and  _161
REMARK   68  A    between atoms: _160  and  _163
REMARK   69  A    between atoms: _163  and  _164
REMARK   70  A    between atoms: _170  and  _172
REMARK   71  A    between atoms: _172  and  _173
REMARK   72  A    between atoms: _172  and  _175
REMARK   73  A    between atoms: _175  and  _176
REMARK   74  A    between atoms: _181  and  _182
REMARK   75  A    between atoms: _184  and  _186
REMARK   76  A    between atoms: _186  and  _187
REMARK   77  A    between atoms: _186  and  _189
REMARK   78  A    between atoms: _192  and  _194
REMARK   79  A    between atoms: _194  and  _195
REMARK   80  A    between atoms: _194  and  _197
REMARK   81  A    between atoms: _197  and  _198
REMARK   82  A    between atoms: _198  and  _199
REMARK   83  A    between atoms: _204  and  _206
REMARK   84  A    between atoms: _206  and  _207
REMARK   85  A    between atoms: _210  and  _212
REMARK   86  A    between atoms: _212  and  _213
REMARK   87  A    between atoms: _212  and  _215
REMARK   88  A    between atoms: _215  and  _216
REMARK   89  A    between atoms: _219  and  _221
REMARK   90  A    between atoms: _221  and  _222
REMARK   91  A    between atoms: _221  and  _224
REMARK   92  A    between atoms: _227  and  _229
REMARK   93  A    between atoms: _229  and  _230
REMARK   94  A    between atoms: _229  and  _232
REMARK   95  A    between atoms: _232  and  _233
REMARK   96  A    between atoms: _243  and  _245
REMARK   97  A    between atoms: _245  and  _246
REMARK   98  A    between atoms: _248  and  _250
REMARK   99  A    between atoms: _250  and  _251
REMARK  100  A    between atoms: _250  and  _253
REMARK  101  A    between atoms: _253  and  _254
REMARK  102  A    between atoms: _259  and  _260
REMARK  103  A    between atoms: _262  and  _264
REMARK  104  A    between atoms: _264  and  _265
REMARK  105  A    between atoms: _264  and  _267
REMARK  106  A    between atoms: _267  and  _268
REMARK  107  A    between atoms: _268  and  _269
REMARK  108  A    between atoms: _269  and  _270
REMARK  109  A    between atoms: _270  and  _271
REMARK  110  A    between atoms: _275  and  _277
REMARK  111  A    between atoms: _277  and  _278
REMARK  112  A    between atoms: _277  and  _280
REMARK  113  A    between atoms: _280  and  _281
REMARK  114  A    between atoms: _284  and  _286
REMARK  115  A    between atoms: _286  and  _287
REMARK  116  A    between atoms: _286  and  _289
REMARK  117  A    between atoms: _289  and  _290
REMARK  118  A    between atoms: _293  and  _295
REMARK  119  A    between atoms: _295  and  _296
REMARK  120  A    between atoms: _295  and  _298
REMARK  121  A    between atoms: _298  and  _299
REMARK  122  A    between atoms: _299  and  _300
REMARK  123  A    between atoms: _300  and  _301
REMARK  124  A    between atoms: _301  and  _302
REMARK  125  A    between atoms: _306  and  _308
REMARK  126  A    between atoms: _308  and  _309
REMARK  127  A    between atoms: _308  and  _311
REMARK  128  A    between atoms: _311  and  _312
REMARK  129  A    between atoms: _315  and  _317
REMARK  130  A    between atoms: _317  and  _318
REMARK  131  A    between atoms: _317  and  _320
REMARK  132  A    between atoms: _320  and  _321
REMARK  133  A    between atoms: _321  and  _322
REMARK  134  A    between atoms: _327  and  _329
REMARK  135  A    between atoms: _329  and  _330
REMARK  136  A    between atoms: _329  and  _332
REMARK  137  A    between atoms: _332  and  _333
REMARK  138  A    between atoms: _338  and  _339
REMARK  139  A    between atoms: _341  and  _343
REMARK  140  A    between atoms: _343  and  _344
REMARK  141  A    between atoms: _343  and  _346
REMARK  142  A    between atoms: _346  and  _347
REMARK  143  A    between atoms: _350  and  _352
REMARK  144  A    between atoms: _352  and  _353
REMARK  145  A    between atoms: _352  and  _355
REMARK  146  A    between atoms: _357  and  _359
REMARK  147  A    between atoms: _359  and  _360
REMARK  148  A    between atoms: _363  and  _365
REMARK  149  A    between atoms: _365  and  _366
REMARK  150  A    between atoms: _365  and  _368
REMARK  151  A    between atoms: _368  and  _369
REMARK  152  A    between atoms: _369  and  _370
REMARK  153  A    between atoms: _370  and  _371
REMARK  154  A    between atoms: _371  and  _372
REMARK  155  A    between atoms: _376  and  _378
REMARK  156  A    between atoms: _378  and  _379
REMARK  157  A    between atoms: _378  and  _381
REMARK  158  A    between atoms: _381  and  _382
REMARK  159  A    between atoms: _385  and  _387
REMARK  160  A    between atoms: _387  and  _388
REMARK  161  A    between atoms: _391  and  _393
REMARK  162  A    between atoms: _393  and  _394
REMARK  163  A    between atoms: _393  and  _396
REMARK  164  A    between atoms: _396  and  _397
REMARK  165  A    between atoms: _397  and  _511
REMARK  166  A    between atoms: _398  and  _400
REMARK  167  A    between atoms: _400  and  _401
REMARK  168  A    between atoms: _400  and  _403
REMARK  169  A    between atoms: _403  and  _404
REMARK  170  A    between atoms: _404  and  _405
REMARK  171  A    between atoms: _405  and  _406
REMARK  172  A    between atoms: _406  and  _407
REMARK  173  A    between atoms: _411  and  _413
REMARK  174  A    between atoms: _413  and  _414
REMARK  175  A    between atoms: _416  and  _418
REMARK  176  A    between atoms: _418  and  _419
REMARK  177  A    between atoms: _418  and  _421
REMARK  178  A    between atoms: _421  and  _422
REMARK  179  A    between atoms: _425  and  _427
REMARK  180  A    between atoms: _427  and  _428
REMARK  181  A    between atoms: _427  and  _430
REMARK  182  A    between atoms: _430  and  _431
REMARK  183  A    between atoms: _433  and  _435
REMARK  184  A    between atoms: _435  and  _436
REMARK  185  A    between atoms: _438  and  _440
REMARK  186  A    between atoms: _440  and  _441
REMARK  187  A    between atoms: _443  and  _445
REMARK  188  A    between atoms: _445  and  _446
REMARK  189  A    between atoms: _445  and  _448
REMARK  190  A    between atoms: _448  and  _449
REMARK  191  A    between atoms: _452  and  _454
REMARK  192  A    between atoms: _454  and  _455
REMARK  193  A    between atoms: _454  and  _457
REMARK  194  A    between atoms: _457  and  _458
REMARK  195  A    between atoms: _461  and  _463
REMARK  196  A    between atoms: _463  and  _464
REMARK  197  A    between atoms: _463  and  _466
REMARK  198  A    between atoms: _466  and  _467
REMARK  199  A    between atoms: _469  and  _471
REMARK  200  A    between atoms: _471  and  _472
REMARK  201  A    between atoms: _471  and  _474
REMARK  202  A    between atoms: _474  and  _475
REMARK  203  A    between atoms: _485  and  _487
REMARK  204  A    between atoms: _487  and  _488
REMARK  205  A    between atoms: _490  and  _492
REMARK  206  A    between atoms: _492  and  _493
REMARK  207  A    between atoms: _492  and  _495
REMARK  208  A    between atoms: _495  and  _496
REMARK  209  A    between atoms: _496  and  _497
REMARK  210  A    between atoms: _500  and  _502
REMARK  211  A    between atoms: _502  and  _503
REMARK  212  A    between atoms: _505  and  _507
REMARK  213  A    between atoms: _507  and  _508
REMARK  214  A    between atoms: _507  and  _510
REMARK  215  A    between atoms: _510  and  _511
REMARK  216  A    between atoms: _512  and  _514
REMARK  217  A    between atoms: _514  and  _515
REMARK  218  A    between atoms: _518  and  _520
REMARK  219  A    between atoms: _520  and  _521
REMARK  220  A    between atoms: _520  and  _523
REMARK  221  A    between atoms: _523  and  _524
REMARK  222  A    between atoms: _524  and  _525
REMARK  223  A    between atoms: _530  and  _532
REMARK  224  A    between atoms: _532  and  _533
REMARK  225  A    between atoms: _532  and  _535
REMARK  226  A    between atoms: _535  and  _536
REMARK  227  A    between atoms: _536  and  _537
REMARK  228  A    between atoms: _537  and  _538
REMARK  229  A    between atoms: _548  and  _549
REMARK  230  A    between atoms: _554  and  _556
REMARK  231  A    between atoms: _556  and  _557
REMARK  232  A    between atoms: _559  and  _561
REMARK  233  A    between atoms: _561  and  _562
REMARK  234  A    between atoms: _561  and  _564
REMARK  235  A    between atoms: _567  and  _569
REMARK  236  A    between atoms: _569  and  _570
REMARK  237  A    between atoms: _569  and  _572
REMARK  238  A    between atoms: _572  and  _573
REMARK  239  A    between atoms: _578  and  _579
REMARK  240  A    between atoms: _581  and  _583
REMARK  241  A    between atoms: _583  and  _584
REMARK  242  A    between atoms: _583  and  _586
REMARK  243  A    between atoms: _586  and  _587
REMARK                            x       y       z     vdW  Elec       q    Type
REMARK                         _______ _______ _______ _____ _____    ______ ____
ROOT
ATOM      1  C   ILE A   1      25.592 -12.872  30.019  0.00  0.00    +0.238 C 
ATOM      2  O   ILE A   1      26.659 -13.474  30.159  0.00  0.00    -0.274 OA
ATOM      3  N   CYS A   2      25.502 -11.654  29.459  0.00  0.00    -0.297 N 
ATOM      4  H   CYS A   2      24.568 -11.217  29.325  0.00  0.00    +0.150 HD
ENDROOT
BRANCH   1   5
ATOM      5  CA  ILE A   1      24.283 -13.567  30.383  0.00  0.00    +0.145 C 
BRANCH   5   6
ATOM      6  N   ILE A   1      24.408 -14.926  29.894  0.00  0.00    -0.238 NA
ATOM      7  H   ILE A   1      25.294 -15.444  30.060  0.00  0.00    +0.142 HD
ENDBRANCH   5   6
BRANCH   5   8
ATOM      8  CB  ILE A   1      23.897 -13.485  31.885  0.00  0.00    +0.025 C 
ATOM      9  CG2 ILE A   1      25.006 -14.053  32.822  0.00  0.00    +0.002 C 
BRANCH   8  10
ATOM     10  CG1 ILE A   1      23.452 -12.031  32.271  0.00  0.00    +0.002 C 
ATOM     11  CD1 ILE A   1      22.873 -11.882  33.715  0.00  0.00    +0.000 C 
ENDBRANCH   8  10
ENDBRANCH   5   8
ENDBRANCH   1   5
BRANCH   3  12
ATOM     12  CA  CYS A   2      26.696 -10.940  29.038  0.00  0.00    +0.160 C 
BRANCH  12  13
ATOM     13  C   CYS A   2      27.039  -9.780  29.908  0.00  0.00    +0.242 C 
ATOM     14  O   CYS A   2      26.153  -9.198  30.537  0.00  0.00    -0.273 OA
ATOM     15  N   ALA A   3      28.333  -9.428  29.929  0.00  0.00    -0.298 N 
ATOM     16  H   ALA A   3      29.010  -9.977  29.362  0.00  0.00    +0.150 HD
BRANCH  15  17
ATOM     17  CA  ALA A   3      28.831  -8.297  30.722  0.00  0.00    +0.137 C 
ATOM     18  CB  ALA A   3      29.166  -8.729  32.159  0.00  0.00    +0.030 C 
BRANCH  17  19
ATOM     19  C   ALA A   3      30.045  -7.683  30.056  0.00  0.00    +0.227 C 
ATOM     20  O   ALA A   3      30.920  -8.391  29.550  0.00  0.00    -0.286 OA
ENDBRANCH  17  19
ENDBRANCH  15  17
ENDBRANCH  12  13
BRANCH  12  21
ATOM     21  CB  CYS A   2      26.592 -10.531  27.576  0.00  0.00    +0.098 C 
ATOM     22  SG  CYS A   2      25.989 -11.851  26.502  0.00  0.00    -0.080 S 
ENDBRANCH  12  21
ENDBRANCH   3  12
TORSDOF 9
REMARK  Name = ../refined-set-2016/4x6o/4x6o_pocket.pdb
REMARK  243 active torsions:
REMARK  status: ('A' for Active; 'I' for Inactive)
REMARK    1  A    between atoms: _1  and  _5
REMARK    2  A    between atoms: _5  and  _6
REMARK    3  A    between atoms: _5  and  _8
REMARK    4  A    between atoms: _8  and  _9
REMARK    5  A    between atoms: _12  and  _14
REMARK    6  A    between atoms: _14  and  _15
REMARK    7  A    between atoms: _14  and  _17
REMARK    8  A    between atoms: _20  and  _22
REMARK    9  A    between atoms: _22  and  _23
REMARK   10  A    between atoms: _22  and  _25
REMARK   11  A    between atoms: _25  and  _26
REMARK   12  A    between atoms: _29  and  _31
REMARK   13  A    between atoms: _31  and  _32
REMARK   14  A    between atoms: _31  and  _34
REMARK   15  A    between atoms: _34  and  _35
REMARK   16  A    between atoms: _38  and  _40
REMARK   17  A    between atoms: _40  and  _41
REMARK   18  A    between atoms: _40  and  _43
REMARK   19  A    between atoms: _43  and  _44
REMARK   20  A    between atoms: _49  and  _51
REMARK   21  A    between atoms: _51  and  _52
REMARK   22  A    between atoms: _51  and  _54
REMARK   23  A    between atoms: _54  and  _55
REMARK   24  A    between atoms: _58  and  _60
REMARK   25  A    between atoms: _60  and  _61
REMARK   26  A    between atoms: _60  and  _63
REMARK   27  A    between atoms: _63  and  _64
REMARK   28  A    between atoms: _67  and  _69
REMARK   29  A    between atoms: _69  and  _70
REMARK   30  A    between atoms: _69  and  _72
REMARK   31  A    between atoms: _72  and  _73
REMARK   32  A    between atoms: _73  and  _74
REMARK   33  A    between atoms: _79  and  _81
REMARK   34  A    between atoms: _81  and  _82
REMARK   35  A    between atoms: _81  and  _84
REMARK   36  A    between atoms: _84  and  _85
REMARK   37  A    between atoms: _85  and  _86
REMARK   38  A    between atoms: _86  and  _87
REMARK   39  A    between atoms: _96  and  _98
REMARK   40  A    between atoms: _98  and  _99
REMARK   41  A    between atoms: _98  and  _101
REMARK   42  A    between atoms: _101  and  _102
REMARK   43  A    between atoms: _107  and  _109
REMARK   44  A    between atoms: _109  and  _110
REMARK   45  A    between atoms: _109  and  _112
REMARK   46  A    between atoms: _112  and  _113
REMARK   47  A    between atoms: _116  and  _118
REMARK   48  A    between atoms: _118  and  _119
REMARK   49  A    between atoms: _118  and  _121
REMARK   50  A    between atoms: _121  and  _122
REMARK   51  A    between atoms: _122  and  _157
REMARK   52  A    between atoms: _123  and  _125
REMARK   53  A    between atoms: _125  and  _126
REMARK   54  A    between atoms: _128  and  _130
REMARK   55  A    between atoms: _130  and  _131
REMARK   56  A    between atoms: _134  and  _136
REMARK   57  A    between atoms: _136  and  _137
REMARK   58  A    between atoms: _140  and  _142
REMARK   59  A    between atoms: _142  and  _143
REMARK   60  A    between atoms: _142  and  _145
REMARK   61  A    between atoms: _145  and  _146
REMARK   62  A    between atoms: _151  and  _153
REMARK   63  A    between atoms: _153  and  _154
REMARK   64  A    between atoms: _153  and  _156
REMARK   65  A    between atoms: _156  and  _157
REMARK   66  A    between atoms: _158  and  _160
REMARK   67  A    between atoms: _160  and  _161
REMARK   68  A    between atoms: _160  and  _163
REMARK   69  A    between atoms: _163  and  _164
REMARK   70  A    between atoms: _170  and  _172
REMARK   71  A    between atoms: _172  and  _173
REMARK   72  A    between atoms: _172  and  _175
REMARK   73  A    between atoms: _175  and  _176
REMARK   74  A    between atoms: _181  and  _182
REMARK   75  A    between atoms: _184  and  _186
REMARK   76  A    between atoms: _186  and  _187
REMARK   77  A    between atoms: _186  and  _189
REMARK   78  A    between atoms: _192  and  _194
REMARK   79  A    between atoms: _194  and  _195
REMARK   80  A    between atoms: _194  and  _197
REMARK   81  A    between atoms: _197  and  _198
REMARK   82  A    between atoms: _198  and  _199
REMARK   83  A    between atoms: _204  and  _206
REMARK   84  A    between atoms: _206  and  _207
REMARK   85  A    between atoms: _210  and  _212
REMARK   86  A    between atoms: _212  and  _213
REMARK   87  A    between atoms: _212  and  _215
REMARK   88  A    between atoms: _215  and  _216
REMARK   89  A    between atoms: _219  and  _221
REMARK   90  A    between atoms: _221  and  _222
REMARK   91  A    between atoms: _221  and  _224
REMARK   92  A    between atoms: _227  and  _229
REMARK   93  A    between atoms: _229  and  _230
REMARK   94  A    between atoms: _229  and  _232
REMARK   95  A    between atoms: _232  and  _233
REMARK   96  A    between atoms: _243  and  _245
REMARK   97  A    between atoms: _245  and  _246
REMARK   98  A    between atoms: _248  and  _250
REMARK   99  A    between atoms: _250  and  _251
REMARK  100  A    between atoms: _250  and  _253
REMARK  101  A    between atoms: _253  and  _254
REMARK  102  A    between atoms: _259  and  _260
REMARK  103  A    between atoms: _262  and  _264
REMARK  104  A    between atoms: _264  and  _265
REMARK  105  A    between atoms: _264  and  _267
REMARK  106  A    between atoms: _267  and  _268
REMARK  107  A    between atoms: _268  and  _269
REMARK  108  A    between atoms: _269  and  _270
REMARK  109  A    between atoms: _270  and  _271
REMARK  110  A    between atoms: _275  and  _277
REMARK  111  A    between atoms: _277  and  _278
REMARK  112  A    between atoms: _277  and  _280
REMARK  113  A    between atoms: _280  and  _281
REMARK  114  A    between atoms: _284  and  _286
REMARK  115  A    between atoms: _286  and  _287
REMARK  116  A    between atoms: _286  and  _289
REMARK  117  A    between atoms: _289  and  _290
REMARK  118  A    between atoms: _293  and  _295
REMARK  119  A    between atoms: _295  and  _296
REMARK  120  A    between atoms: _295  and  _298
REMARK  121  A    between atoms: _298  and  _299
REMARK  122  A    between atoms: _299  and  _300
REMARK  123  A    between atoms: _300  and  _301
REMARK  124  A    between atoms: _301  and  _302
REMARK  125  A    between atoms: _306  and  _308
REMARK  126  A    between atoms: _308  and  _309
REMARK  127  A    between atoms: _308  and  _311
REMARK  128  A    between atoms: _311  and  _312
REMARK  129  A    between atoms: _315  and  _317
REMARK  130  A    between atoms: _317  and  _318
REMARK  131  A    between atoms: _317  and  _320
REMARK  132  A    between atoms: _320  and  _321
REMARK  133  A    between atoms: _321  and  _322
REMARK  134  A    between atoms: _327  and  _329
REMARK  135  A    between atoms: _329  and  _330
REMARK  136  A    between atoms: _329  and  _332
REMARK  137  A    between atoms: _332  and  _333
REMARK  138  A    between atoms: _338  and  _339
REMARK  139  A    between atoms: _341  and  _343
REMARK  140  A    between atoms: _343  and  _344
REMARK  141  A    between atoms: _343  and  _346
REMARK  142  A    between atoms: _346  and  _347
REMARK  143  A    between atoms: _350  and  _352
REMARK  144  A    between atoms: _352  and  _353
REMARK  145  A    between atoms: _352  and  _355
REMARK  146  A    between atoms: _357  and  _359
REMARK  147  A    between atoms: _359  and  _360
REMARK  148  A    between atoms: _363  and  _365
REMARK  149  A    between atoms: _365  and  _366
REMARK  150  A    between atoms: _365  and  _368
REMARK  151  A    between atoms: _368  and  _369
REMARK  152  A    between atoms: _369  and  _370
REMARK  153  A    between atoms: _370  and  _371
REMARK  154  A    between atoms: _371  and  _372
REMARK  155  A    between atoms: _376  and  _378
REMARK  156  A    between atoms: _378  and  _379
REMARK  157  A    between atoms: _378  and  _381
REMARK  158  A    between atoms: _381  and  _382
REMARK  159  A    between atoms: _385  and  _387
REMARK  160  A    between atoms: _387  and  _388
REMARK  161  A    between atoms: _391  and  _393
REMARK  162  A    between atoms: _393  and  _394
REMARK  163  A    between atoms: _393  and  _396
REMARK  164  A    between atoms: _396  and  _397
REMARK  165  A    between atoms: _397  and  _511
REMARK  166  A    between atoms: _398  and  _400
REMARK  167  A    between atoms: _400  and  _401
REMARK  168  A    between atoms: _400  and  _403
REMARK  169  A    between atoms: _403  and  _404
REMARK  170  A    between atoms: _404  and  _405
REMARK  171  A    between atoms: _405  and  _406
REMARK  172  A    between atoms: _406  and  _407
REMARK  173  A    between atoms: _411  and  _413
REMARK  174  A    between atoms: _413  and  _414
REMARK  175  A    between atoms: _416  and  _418
REMARK  176  A    between atoms: _418  and  _419
REMARK  177  A    between atoms: _418  and  _421
REMARK  178  A    between atoms: _421  and  _422
REMARK  179  A    between atoms: _425  and  _427
REMARK  180  A    between atoms: _427  and  _428
REMARK  181  A    between atoms: _427  and  _430
REMARK  182  A    between atoms: _430  and  _431
REMARK  183  A    between atoms: _433  and  _435
REMARK  184  A    between atoms: _435  and  _436
REMARK  185  A    between atoms: _438  and  _440
REMARK  186  A    between atoms: _440  and  _441
REMARK  187  A    between atoms: _443  and  _445
REMARK  188  A    between atoms: _445  and  _446
REMARK  189  A    between atoms: _445  and  _448
REMARK  190  A    between atoms: _448  and  _449
REMARK  191  A    between atoms: _452  and  _454
REMARK  192  A    between atoms: _454  and  _455
REMARK  193  A    between atoms: _454  and  _457
REMARK  194  A    between atoms: _457  and  _458
REMARK  195  A    between atoms: _461  and  _463
REMARK  196  A    between atoms: _463  and  _464
REMARK  197  A    between atoms: _463  and  _466
REMARK  198  A    between atoms: _466  and  _467
REMARK  199  A    between atoms: _469  and  _471
REMARK  200  A    between atoms: _471  and  _472
REMARK  201  A    between atoms: _471  and  _474
REMARK  202  A    between atoms: _474  and  _475
REMARK  203  A    between atoms: _485  and  _487
REMARK  204  A    between atoms: _487  and  _488
REMARK  205  A    between atoms: _490  and  _492
REMARK  206  A    between atoms: _492  and  _493
REMARK  207  A    between atoms: _492  and  _495
REMARK  208  A    between atoms: _495  and  _496
REMARK  209  A    between atoms: _496  and  _497
REMARK  210  A    between atoms: _500  and  _502
REMARK  211  A    between atoms: _502  and  _503
REMARK  212  A    between atoms: _505  and  _507
REMARK  213  A    between atoms: _507  and  _508
REMARK  214  A    between atoms: _507  and  _510
REMARK  215  A    between atoms: _510  and  _511
REMARK  216  A    between atoms: _512  and  _514
REMARK  217  A    between atoms: _514  and  _515
REMARK  218  A    between atoms: _518  and  _520
REMARK  219  A    between atoms: _520  and  _521
REMARK  220  A    between atoms: _520  and  _523
REMARK  221  A    between atoms: _523  and  _524
REMARK  222  A    between atoms: _524  and  _525
REMARK  223  A    between atoms: _530  and  _532
REMARK  224  A    between atoms: _532  and  _533
REMARK  225  A    between atoms: _532  and  _535
REMARK  226  A    between atoms: _535  and  _536
REMARK  227  A    between atoms: _536  and  _537
REMARK  228  A    between atoms: _537  and  _538
REMARK  229  A    between atoms: _548  and  _549
REMARK  230  A    between atoms: _554  and  _556
REMARK  231  A    between atoms: _556  and  _557
REMARK  232  A    between atoms: _559  and  _561
REMARK  233  A    between atoms: _561  and  _562
REMARK  234  A    between atoms: _561  and  _564
REMARK  235  A    between atoms: _567  and  _569
REMARK  236  A    between atoms: _569  and  _570
REMARK  237  A    between atoms: _569  and  _572
REMARK  238  A    between atoms: _572  and  _573
REMARK  239  A    between atoms: _578  and  _579
REMARK  240  A    between atoms: _581  and  _583
REMARK  241  A    between atoms: _583  and  _584
REMARK  242  A    between atoms: _583  and  _586
REMARK  243  A    between atoms: _586  and  _587
REMARK                            x       y       z     vdW  Elec       q    Type
REMARK                         _______ _______ _______ _____ _____    ______ ____
ROOT
ATOM      1  CA  CYS A   8      39.534 -10.173  25.764  0.00  0.00    +0.160 C 
ENDROOT
BRANCH   1   2
ATOM      2  C   CYS A   8      39.366  -8.677  25.864  0.00  0.00    +0.242 C 
ATOM      3  N   ALA A   9      38.310  -8.201  26.536  0.00  0.00    -0.297 N 
ATOM      4  H   ALA A   9      37.627  -8.894  26.903  0.00  0.00    +0.150 HD
ATOM      5  O   CYS A   8      40.220  -7.967  25.341  0.00  0.00    -0.273 OA
BRANCH   3   6
ATOM      6  CA  ALA A   9      38.038  -6.793  26.796  0.00  0.00    +0.149 C 
ATOM      7  CB  ALA A   9      39.069  -6.238  27.780  0.00  0.00    +0.031 C 
BRANCH   6   8
ATOM      8  C   ALA A   9      37.998  -5.942  25.538  0.00  0.00    +0.241 C 
ATOM      9  O   ALA A   9      38.367  -4.762  25.584  0.00  0.00    -0.273 OA
ATOM     10  N   GLN A  10      37.598  -6.541  24.396  0.00  0.00    -0.298 N 
ATOM     11  H   GLN A  10      37.335  -7.547  24.391  0.00  0.00    +0.150 HD
BRANCH  10  12
ATOM     12  CA  GLN A  10      37.541  -5.753  23.170  0.00  0.00    +0.137 C 
BRANCH  12  13
ATOM     13  C   GLN A  10      36.291  -4.884  23.170  0.00  0.00    +0.227 C 
ATOM     14  O   GLN A  10      35.251  -5.241  23.733  0.00  0.00    -0.286 OA
ENDBRANCH  12  13
BRANCH  12  15
ATOM     15  CB  GLN A  10      37.526  -6.646  21.926  0.00  0.00    +0.037 C 
BRANCH  15  16
ATOM     16  CG  GLN A  10      38.756  -7.527  21.784  0.00  0.00    +0.087 C 
BRANCH  16  17
ATOM     17  CD  GLN A  10      38.899  -7.938  20.356  0.00  0.00    +0.219 C 
ATOM     18  NE2 GLN A  10      38.210  -8.996  19.965  0.00  0.00    -0.329 N 
ATOM     19 HE21 GLN A  10      37.658  -9.542  20.657  0.00  0.00    +0.145 HD
ATOM     20 HE22 GLN A  10      38.220  -9.283  18.965  0.00  0.00    +0.145 HD
ATOM     21  OE1 GLN A  10      39.566  -7.262  19.577  0.00  0.00    -0.275 OA
ENDBRANCH  16  17
ENDBRANCH  15  16
ENDBRANCH  12  15
ENDBRANCH  10  12
ENDBRANCH   6   8
ENDBRANCH   3   6
ENDBRANCH   1   2
BRANCH   1  22
ATOM     22  N   CYS A   8      39.719 -10.614  24.367  0.00  0.00    -0.296 N 
ATOM     23  C   GLY A   7      38.964 -11.580  23.815  0.00  0.00    +0.243 C 
ATOM     24  O   GLY A   7      38.045 -12.134  24.439  0.00  0.00    -0.273 OA
ATOM     25  H   CYS A   8      40.458 -10.162  23.791  0.00  0.00    +0.150 HD
BRANCH  23  26
ATOM     26  CA  GLY A   7      39.228 -11.961  22.360  0.00  0.00    +0.176 C 
BRANCH  26  27
ATOM     27  N   GLY A   7      38.048 -12.639  21.812  0.00  0.00    -0.295 N 
ATOM     28  H   GLY A   7      38.117 -13.660  21.626  0.00  0.00    +0.150 HD
ATOM     29  C   GLU A   6      36.892 -12.032  21.537  0.00  0.00    +0.241 C 
ATOM     30  O   GLU A   6      36.689 -10.810  21.691  0.00  0.00    -0.273 OA
BRANCH  29  31
ATOM     31  CA  GLU A   6      35.743 -12.952  21.087  0.00  0.00    +0.149 C 
BRANCH  31  32
ATOM     32  N   GLU A   6      34.873 -13.071  22.275  0.00  0.00    -0.297 N 
ATOM     33  C   GLY A   5      35.058 -14.072  23.157  0.00  0.00    +0.243 C 
ATOM     34  O   GLY A   5      35.887 -14.977  22.977  0.00  0.00    -0.273 OA
ATOM     35  H   GLU A   6      34.113 -12.378  22.431  0.00  0.00    +0.150 HD
BRANCH  33  36
ATOM     36  CA  GLY A   5      34.203 -14.080  24.413  0.00  0.00    +0.176 C 
BRANCH  36  37
ATOM     37  N   GLY A   5      34.227 -15.418  25.013  0.00  0.00    -0.295 N 
ATOM     38  C   TRP A   4      33.423 -15.814  25.978  0.00  0.00    +0.241 C 
ATOM     39  O   TRP A   4      32.634 -15.058  26.539  0.00  0.00    -0.273 OA
ATOM     40  H   GLY A   5      34.925 -16.099  24.653  0.00  0.00    +0.150 HD
BRANCH  38  41
ATOM     41  CA  TRP A   4      33.553 -17.291  26.415  0.00  0.00    +0.153 C 
BRANCH  41  42
ATOM     42  N   TRP A   4      32.854 -17.587  27.677  0.00  0.00    -0.297 N 
ATOM     43  C   SER A   3      33.274 -18.591  28.453  0.00  0.00    +0.243 C 
ATOM     44  O   SER A   3      34.279 -19.262  28.203  0.00  0.00    -0.273 OA
ATOM     45  H   TRP A   4      32.034 -17.015  27.964  0.00  0.00    +0.150 HD
BRANCH  43  46
ATOM     46  CA  SER A   3      32.478 -18.884  29.708  0.00  0.00    +0.178 C 
BRANCH  46  47
ATOM     47  N   SER A   3      32.597 -17.866  30.745  0.00  0.00    -0.295 N 
ATOM     48  C   THR A   2      33.067 -18.170  31.963  0.00  0.00    +0.243 C 
ATOM     49  O   THR A   2      33.506 -19.275  32.258  0.00  0.00    -0.273 OA
ATOM     50  H   SER A   3      32.312 -16.888  30.536  0.00  0.00    +0.150 HD
BRANCH  48  51
ATOM     51  CA  THR A   2      32.983 -17.080  33.019  0.00  0.00    +0.176 C 
BRANCH  51  52
ATOM     52  N   THR A   2      32.134 -17.542  34.139  0.00  0.00    -0.295 N 
ATOM     53  H   THR A   2      32.516 -17.473  35.104  0.00  0.00    +0.150 HD
ATOM     54  C   ILE A   1      30.886 -18.051  33.981  0.00  0.00    +0.238 C 
ATOM     55  O   ILE A   1      30.329 -18.155  32.891  0.00  0.00    -0.274 OA
BRANCH  54  56
ATOM     56  CA  ILE A   1      30.133 -18.509  35.230  0.00  0.00    +0.145 C 
BRANCH  56  57
ATOM     57  CB  ILE A   1      29.870 -20.044  35.173  0.00  0.00    +0.025 C 
ATOM     58  CG2 ILE A   1      31.197 -20.798  35.082  0.00  0.00    +0.002 C 
BRANCH  57  59
ATOM     59  CG1 ILE A   1      29.003 -20.548  36.364  0.00  0.00    +0.002 C 
ATOM     60  CD1 ILE A   1      28.475 -21.968  36.113  0.00  0.00    +0.000 C 
ENDBRANCH  57  59
ENDBRANCH  56  57
BRANCH  56  61
ATOM     61  N   ILE A   1      28.921 -17.690  35.268  0.00  0.00    -0.238 NA
ATOM     62  H   ILE A   1      28.264 -17.757  34.464  0.00  0.00    +0.142 HD
ENDBRANCH  56  61
ENDBRANCH  54  56
ENDBRANCH  51  52
BRANCH  51  63
ATOM     63  CB  THR A   2      34.349 -16.638  33.537  0.00  0.00    +0.137 C 
ATOM     64  CG2 THR A   2      35.274 -16.121  32.415  0.00  0.00    +0.034 C 
BRANCH  63  65
ATOM     65  OG1 THR A   2      34.145 -15.662  34.567  0.00  0.00    -0.382 OA
ATOM     66  HG1 THR A   2      35.022 -15.363  34.915  0.00  0.00    +0.210 HD
ENDBRANCH  63  65
ENDBRANCH  51  63
ENDBRANCH  48  51
ENDBRANCH  46  47
BRANCH  46  67
ATOM     67  CB  SER A   3      30.999 -19.146  29.405  0.00  0.00    +0.166 C 
BRANCH  67  68
ATOM     68  OG  SER A   3      30.806 -20.197  28.475  0.00  0.00    -0.380 OA
ATOM     69  H   SER A   3      31.193 -21.033  28.838  0.00  0.00    +0.211 HD
ENDBRANCH  67  68
ENDBRANCH  46  67
ENDBRANCH  43  46
ENDBRANCH  41  42
BRANCH  41  70
ATOM     70  CB  TRP A   4      33.103 -18.294  25.311  0.00  0.00    +0.057 C 
BRANCH  70  71
ATOM     71  CG  TRP A   4      31.682 -18.112  24.869  0.00  0.00    -0.002 A 
ATOM     72  CD1 TRP A   4      30.565 -18.606  25.472  0.00  0.00    +0.068 A 
ATOM     73  NE1 TRP A   4      29.439 -18.171  24.810  0.00  0.00    -0.352 N 
ATOM     74  HE1 TRP A   4      28.459 -18.371  25.093  0.00  0.00    +0.166 HD
ATOM     75  CE2 TRP A   4      29.816 -17.431  23.716  0.00  0.00    +0.056 A 
ATOM     76  CZ2 TRP A   4      29.038 -16.801  22.728  0.00  0.00    +0.017 A 
ATOM     77  CH2 TRP A   4      29.707 -16.064  21.763  0.00  0.00    +0.001 A 
ATOM     78  CZ3 TRP A   4      31.106 -15.924  21.784  0.00  0.00    +0.000 A 
ATOM     79  CE3 TRP A   4      31.876 -16.570  22.746  0.00  0.00    +0.001 A 
ATOM     80  CD2 TRP A   4      31.223 -17.340  23.738  0.00  0.00    +0.013 A 
ENDBRANCH  70  71
ENDBRANCH  41  70
ENDBRANCH  38  41
ENDBRANCH  36  37
ENDBRANCH  33  36
ENDBRANCH  31  32
BRANCH  31  81
ATOM     81  CB  GLU A   6      34.982 -12.362  19.868  0.00  0.00    +0.041 C 
BRANCH  81  82
ATOM     82  CG  GLU A   6      35.854 -12.217  18.625  0.00  0.00    +0.116 C 
BRANCH  82  83
ATOM     83  CD  GLU A   6      36.586 -13.493  18.256  0.00  0.00    +0.365 C 
ATOM     84  OE2 GLU A   6      37.834 -13.487  18.205  0.00  0.00    -0.246 OA
ATOM     85  OE1 GLU A   6      35.911 -14.535  18.147  0.00  0.00    -0.246 OA
ENDBRANCH  82  83
ENDBRANCH  81  82
ENDBRANCH  31  81
ENDBRANCH  29  31
ENDBRANCH  26  27
ENDBRANCH  23  26
ENDBRANCH   1  22
BRANCH   1  86
ATOM     86  CB  CYS A   8      40.691 -10.630  26.643  0.00  0.00    +0.098 C 
BRANCH  86  87
ATOM     87  SG  CYS A   8      41.017 -12.402  26.589  0.00  0.00    -0.080 S 
BRANCH  87  88
ATOM     88  SG  TRP A   4      42.501 -12.375  27.969  0.00  0.00    -0.080 S 
BRANCH  88  89
ATOM     89  CB  TRP A   4      41.854 -12.487  29.671  0.00  0.00    +0.098 C 
BRANCH  89  90
ATOM     90  CA  TRP A   4      40.691 -13.471  29.836  0.00  0.00    +0.160 C 
BRANCH  90  91
ATOM     91  C   TRP A   4      41.161 -14.911  30.145  0.00  0.00    +0.242 C 
ATOM     92  O   TRP A   4      40.667 -15.529  31.097  0.00  0.00    -0.273 OA
ATOM     93  N   GLY A   5      42.058 -15.466  29.329  0.00  0.00    -0.297 N 
ATOM     94  H   GLY A   5      42.414 -14.896  28.536  0.00  0.00    +0.150 HD
BRANCH  93  95
ATOM     95  CA  GLY A   5      42.577 -16.840  29.482  0.00  0.00    +0.149 C 
BRANCH  95  96
ATOM     96  C   GLY A   5      42.956 -17.195  30.908  0.00  0.00    +0.241 C 
ATOM     97  O   GLY A   5      43.811 -16.529  31.491  0.00  0.00    -0.273 OA
ATOM     98  N   GLU A   6      42.322 -18.227  31.465  0.00  0.00    -0.295 N 
ATOM     99  H   GLU A   6      41.608 -18.741  30.911  0.00  0.00    +0.150 HD
BRANCH  98 100
ATOM    100  CA  GLU A   6      42.606 -18.656  32.840  0.00  0.00    +0.176 C 
BRANCH 100 101
ATOM    101  C   GLU A   6      41.567 -18.229  33.850  0.00  0.00    +0.243 C 
ATOM    102  O   GLU A   6      41.565 -18.706  34.995  0.00  0.00    -0.273 OA
ATOM    103  N   GLY A   7      40.640 -17.366  33.419  0.00  0.00    -0.296 N 
ATOM    104  H   GLY A   7      40.685 -17.018  32.440  0.00  0.00    +0.150 HD
BRANCH 103 105
ATOM    105  CA  GLY A   7      39.560 -16.899  34.298  0.00  0.00    +0.160 C 
BRANCH 105 106
ATOM    106  C   GLY A   7      38.321 -17.797  34.191  0.00  0.00    +0.241 C 
ATOM    107  O   GLY A   7      37.501 -17.814  35.112  0.00  0.00    -0.273 OA
ATOM    108  N   CYS A   8      38.192 -18.541  33.073  0.00  0.00    -0.295 N 
ATOM    109  H   CYS A   8      38.950 -18.532  32.361  0.00  0.00    +0.150 HD
BRANCH 108 110
ATOM    110  CA  CYS A   8      36.997 -19.362  32.848  0.00  0.00    +0.178 C 
BRANCH 110 111
ATOM    111  C   CYS A   8      36.625 -20.329  33.969  0.00  0.00    +0.243 C 
ATOM    112  O   CYS A   8      37.488 -20.853  34.686  0.00  0.00    -0.273 OA
ATOM    113  N   ALA A   9      35.327 -20.457  34.183  0.00  0.00    -0.295 N 
ATOM    114  H   ALA A   9      34.655 -19.934  33.586  0.00  0.00    +0.150 HD
BRANCH 113 115
ATOM    115  CA  ALA A   9      34.825 -21.319  35.242  0.00  0.00    +0.176 C 
BRANCH 115 116
ATOM    116  C   ALA A   9      34.647 -20.566  36.537  0.00  0.00    +0.243 C 
ATOM    117  O   ALA A   9      33.954 -21.034  37.438  0.00  0.00    -0.273 OA
ATOM    118  N   GLN A  10      35.268 -19.386  36.619  0.00  0.00    -0.296 N 
ATOM    119  H   GLN A  10      35.826 -19.054  35.806  0.00  0.00    +0.150 HD
BRANCH 118 120
ATOM    120  CA  GLN A  10      35.191 -18.555  37.798  0.00  0.00    +0.163 C 
BRANCH 120 121
ATOM    121  C   GLN A  10      33.862 -17.830  37.872  0.00  0.00    +0.229 C 
ATOM    122  O   GLN A  10      33.078 -17.831  36.921  0.00  0.00    -0.286 OA
ENDBRANCH 120 121
ENDBRANCH 118 120
ENDBRANCH 115 116
ENDBRANCH 113 115
ENDBRANCH 110 111
BRANCH 110 123
ATOM    123  CB  CYS A   8      36.987 -20.004  31.464  0.00  0.00    +0.166 C 
BRANCH 123 124
ATOM    124  O   CYS A   8      37.927 -21.061  31.441  0.00  0.00    -0.380 OA
ATOM    125  H   CYS A   8      38.829 -20.703  31.638  0.00  0.00    +0.211 HD
ENDBRANCH 123 124
ENDBRANCH 110 123
ENDBRANCH 108 110
ENDBRANCH 105 106
BRANCH 105 126
ATOM    126  CB  GLY A   7      39.174 -15.460  33.958  0.00  0.00    +0.143 C 
BRANCH 126 127
ATOM    127  CG  GLY A   7      40.240 -14.473  34.359  0.00  0.00    +0.367 C 
ATOM    128  OD2 GLY A   7      40.818 -14.637  35.474  0.00  0.00    -0.246 OA
ATOM    129  OD1 GLY A   7      40.479 -13.511  33.585  0.00  0.00    -0.246 OA
ENDBRANCH 126 127
ENDBRANCH 105 126
ENDBRANCH 103 105
ENDBRANCH 100 101
ENDBRANCH  98 100
ENDBRANCH  95  96
BRANCH  95 130
ATOM    130  CB  GLY A   5      43.777 -17.035  28.557  0.00  0.00    +0.029 C 
BRANCH 130 131
ATOM    131  CG  GLY A   5      43.368 -16.962  27.092  0.00  0.00    +0.000 C 
BRANCH 131 132
ATOM    132  CD  GLY A   5      44.612 -16.783  26.201  0.00  0.00    -0.024 C 
BRANCH 132 133
ATOM    133  CE  GLY A   5      44.299 -16.905  24.724  0.00  0.00    -0.086 C 
BRANCH 133 134
ATOM    134  NZ  GLY A   5      45.541 -16.698  23.935  0.00  0.00    +0.380 N 
ATOM    135  HZ1 GLY A   5      46.243 -17.417  24.201  0.00  0.00    -0.089 HD
ATOM    136  HZ2 GLY A   5      45.921 -15.750  24.132  0.00  0.00    -0.089 HD
ATOM    137  HZ3 GLY A   5      45.324 -16.782  22.921  0.00  0.00    -0.089 HD
ENDBRANCH 133 134
ENDBRANCH 132 133
ENDBRANCH 131 132
ENDBRANCH 130 131
ENDBRANCH  95 130
ENDBRANCH  93  95
ENDBRANCH  90  91
BRANCH  90 139
ATOM    138  C   SER A   3      38.715 -12.218  30.632  0.00  0.00    +0.241 C 
ATOM    139  N   TRP A   4      39.745 -13.045  30.869  0.00  0.00    -0.296 N 
ATOM    140  H   TRP A   4      39.878 -13.402  31.837  0.00  0.00    +0.150 HD
ATOM    141  O   SER A   3      38.533 -11.652  29.541  0.00  0.00    -0.273 OA
BRANCH 138 142
ATOM    142  CA  SER A   3      37.754 -11.976  31.792  0.00  0.00    +0.149 C 
ATOM    143  CB  SER A   3      36.764 -13.119  31.848  0.00  0.00    +0.031 C 
BRANCH 142 146
ATOM    144  C   THR A   2      37.587  -9.534  31.693  0.00  0.00    +0.241 C 
ATOM    145  O   THR A   2      38.704  -9.361  32.181  0.00  0.00    -0.273 OA
ATOM    146  N   SER A   3      37.041 -10.742  31.518  0.00  0.00    -0.297 N 
ATOM    147  H   SER A   3      36.063 -10.800  31.170  0.00  0.00    +0.150 HD
BRANCH 144 148
ATOM    148  CA  THR A   2      36.808  -8.377  31.099  0.00  0.00    +0.160 C 
BRANCH 148 150
ATOM    149  C   ILE A   1      36.862  -5.929  31.156  0.00  0.00    +0.238 C 
ATOM    150  N   THR A   2      37.439  -7.096  31.457  0.00  0.00    -0.297 N 
ATOM    151  H   THR A   2      38.352  -7.099  31.954  0.00  0.00    +0.150 HD
ATOM    152  O   ILE A   1      35.776  -5.840  30.591  0.00  0.00    -0.274 OA
BRANCH 149 153
ATOM    153  CA  ILE A   1      37.624  -4.673  31.512  0.00  0.00    +0.145 C 
BRANCH 153 154
ATOM    154  N   ILE A   1      37.711  -3.828  30.314  0.00  0.00    -0.238 NA
ATOM    155  H   ILE A   1      36.849  -3.630  29.767  0.00  0.00    +0.142 HD
ENDBRANCH 153 154
BRANCH 153 156
ATOM    156  CB  ILE A   1      36.976  -3.937  32.691  0.00  0.00    +0.026 C 
BRANCH 156 157
ATOM    157  CG  ILE A   1      37.838  -2.821  33.237  0.00  0.00    -0.000 C 
BRANCH 157 158
ATOM    158  CD  ILE A   1      37.147  -2.116  34.365  0.00  0.00    -0.024 C 
BRANCH 158 159
ATOM    159  CE  ILE A   1      37.992  -0.997  34.922  0.00  0.00    -0.086 C 
BRANCH 159 160
ATOM    160  NZ  ILE A   1      37.466  -0.577  36.247  0.00  0.00    +0.380 N 
ATOM    161  HZ1 ILE A   1      37.492  -1.385  36.901  0.00  0.00    -0.089 HD
ATOM    162  HZ2 ILE A   1      38.054   0.194  36.623  0.00  0.00    -0.089 HD
ATOM    163  HZ3 ILE A   1      36.486  -0.247  36.141  0.00  0.00    -0.089 HD
ENDBRANCH 159 160
ENDBRANCH 158 159
ENDBRANCH 157 158
ENDBRANCH 156 157
ENDBRANCH 153 156
ENDBRANCH 149 153
ENDBRANCH 148 150
BRANCH 148 164
ATOM    164  CB  THR A   2      36.884  -8.549  29.549  0.00  0.00    +0.143 C 
BRANCH 164 165
ATOM    165  CG  THR A   2      36.008  -9.621  28.897  0.00  0.00    +0.367 C 
ATOM    166  OD2 THR A   2      35.103 -10.165  29.591  0.00  0.00    -0.246 OA
ATOM    167  OD1 THR A   2      36.194  -9.881  27.677  0.00  0.00    -0.246 OA
ENDBRANCH 164 165
ENDBRANCH 148 164
ENDBRANCH 144 148
ENDBRANCH 142 146
ENDBRANCH 138 142
ENDBRANCH  90 139
ENDBRANCH  89  90
ENDBRANCH  88  89
ENDBRANCH  87  88
ENDBRANCH  86  87
ENDBRANCH   1  86
TORSDOF 75
REMARK  Name = ../refined-set-2016/4x6o/4x6o_pocket.pdb
REMARK  243 active torsions:
REMARK  status: ('A' for Active; 'I' for Inactive)
REMARK    1  A    between atoms: _1  and  _5
REMARK    2  A    between atoms: _5  and  _6
REMARK    3  A    between atoms: _5  and  _8
REMARK    4  A    between atoms: _8  and  _9
REMARK    5  A    between atoms: _12  and  _14
REMARK    6  A    between atoms: _14  and  _15
REMARK    7  A    between atoms: _14  and  _17
REMARK    8  A    between atoms: _20  and  _22
REMARK    9  A    between atoms: _22  and  _23
REMARK   10  A    between atoms: _22  and  _25
REMARK   11  A    between atoms: _25  and  _26
REMARK   12  A    between atoms: _29  and  _31
REMARK   13  A    between atoms: _31  and  _32
REMARK   14  A    between atoms: _31  and  _34
REMARK   15  A    between atoms: _34  and  _35
REMARK   16  A    between atoms: _38  and  _40
REMARK   17  A    between atoms: _40  and  _41
REMARK   18  A    between atoms: _40  and  _43
REMARK   19  A    between atoms: _43  and  _44
REMARK   20  A    between atoms: _49  and  _51
REMARK   21  A    between atoms: _51  and  _52
REMARK   22  A    between atoms: _51  and  _54
REMARK   23  A    between atoms: _54  and  _55
REMARK   24  A    between atoms: _58  and  _60
REMARK   25  A    between atoms: _60  and  _61
REMARK   26  A    between atoms: _60  and  _63
REMARK   27  A    between atoms: _63  and  _64
REMARK   28  A    between atoms: _67  and  _69
REMARK   29  A    between atoms: _69  and  _70
REMARK   30  A    between atoms: _69  and  _72
REMARK   31  A    between atoms: _72  and  _73
REMARK   32  A    between atoms: _73  and  _74
REMARK   33  A    between atoms: _79  and  _81
REMARK   34  A    between atoms: _81  and  _82
REMARK   35  A    between atoms: _81  and  _84
REMARK   36  A    between atoms: _84  and  _85
REMARK   37  A    between atoms: _85  and  _86
REMARK   38  A    between atoms: _86  and  _87
REMARK   39  A    between atoms: _96  and  _98
REMARK   40  A    between atoms: _98  and  _99
REMARK   41  A    between atoms: _98  and  _101
REMARK   42  A    between atoms: _101  and  _102
REMARK   43  A    between atoms: _107  and  _109
REMARK   44  A    between atoms: _109  and  _110
REMARK   45  A    between atoms: _109  and  _112
REMARK   46  A    between atoms: _112  and  _113
REMARK   47  A    between atoms: _116  and  _118
REMARK   48  A    between atoms: _118  and  _119
REMARK   49  A    between atoms: _118  and  _121
REMARK   50  A    between atoms: _121  and  _122
REMARK   51  A    between atoms: _122  and  _157
REMARK   52  A    between atoms: _123  and  _125
REMARK   53  A    between atoms: _125  and  _126
REMARK   54  A    between atoms: _128  and  _130
REMARK   55  A    between atoms: _130  and  _131
REMARK   56  A    between atoms: _134  and  _136
REMARK   57  A    between atoms: _136  and  _137
REMARK   58  A    between atoms: _140  and  _142
REMARK   59  A    between atoms: _142  and  _143
REMARK   60  A    between atoms: _142  and  _145
REMARK   61  A    between atoms: _145  and  _146
REMARK   62  A    between atoms: _151  and  _153
REMARK   63  A    between atoms: _153  and  _154
REMARK   64  A    between atoms: _153  and  _156
REMARK   65  A    between atoms: _156  and  _157
REMARK   66  A    between atoms: _158  and  _160
REMARK   67  A    between atoms: _160  and  _161
REMARK   68  A    between atoms: _160  and  _163
REMARK   69  A    between atoms: _163  and  _164
REMARK   70  A    between atoms: _170  and  _172
REMARK   71  A    between atoms: _172  and  _173
REMARK   72  A    between atoms: _172  and  _175
REMARK   73  A    between atoms: _175  and  _176
REMARK   74  A    between atoms: _181  and  _182
REMARK   75  A    between atoms: _184  and  _186
REMARK   76  A    between atoms: _186  and  _187
REMARK   77  A    between atoms: _186  and  _189
REMARK   78  A    between atoms: _192  and  _194
REMARK   79  A    between atoms: _194  and  _195
REMARK   80  A    between atoms: _194  and  _197
REMARK   81  A    between atoms: _197  and  _198
REMARK   82  A    between atoms: _198  and  _199
REMARK   83  A    between atoms: _204  and  _206
REMARK   84  A    between atoms: _206  and  _207
REMARK   85  A    between atoms: _210  and  _212
REMARK   86  A    between atoms: _212  and  _213
REMARK   87  A    between atoms: _212  and  _215
REMARK   88  A    between atoms: _215  and  _216
REMARK   89  A    between atoms: _219  and  _221
REMARK   90  A    between atoms: _221  and  _222
REMARK   91  A    between atoms: _221  and  _224
REMARK   92  A    between atoms: _227  and  _229
REMARK   93  A    between atoms: _229  and  _230
REMARK   94  A    between atoms: _229  and  _232
REMARK   95  A    between atoms: _232  and  _233
REMARK   96  A    between atoms: _243  and  _245
REMARK   97  A    between atoms: _245  and  _246
REMARK   98  A    between atoms: _248  and  _250
REMARK   99  A    between atoms: _250  and  _251
REMARK  100  A    between atoms: _250  and  _253
REMARK  101  A    between atoms: _253  and  _254
REMARK  102  A    between atoms: _259  and  _260
REMARK  103  A    between atoms: _262  and  _264
REMARK  104  A    between atoms: _264  and  _265
REMARK  105  A    between atoms: _264  and  _267
REMARK  106  A    between atoms: _267  and  _268
REMARK  107  A    between atoms: _268  and  _269
REMARK  108  A    between atoms: _269  and  _270
REMARK  109  A    between atoms: _270  and  _271
REMARK  110  A    between atoms: _275  and  _277
REMARK  111  A    between atoms: _277  and  _278
REMARK  112  A    between atoms: _277  and  _280
REMARK  113  A    between atoms: _280  and  _281
REMARK  114  A    between atoms: _284  and  _286
REMARK  115  A    between atoms: _286  and  _287
REMARK  116  A    between atoms: _286  and  _289
REMARK  117  A    between atoms: _289  and  _290
REMARK  118  A    between atoms: _293  and  _295
REMARK  119  A    between atoms: _295  and  _296
REMARK  120  A    between atoms: _295  and  _298
REMARK  121  A    between atoms: _298  and  _299
REMARK  122  A    between atoms: _299  and  _300
REMARK  123  A    between atoms: _300  and  _301
REMARK  124  A    between atoms: _301  and  _302
REMARK  125  A    between atoms: _306  and  _308
REMARK  126  A    between atoms: _308  and  _309
REMARK  127  A    between atoms: _308  and  _311
REMARK  128  A    between atoms: _311  and  _312
REMARK  129  A    between atoms: _315  and  _317
REMARK  130  A    between atoms: _317  and  _318
REMARK  131  A    between atoms: _317  and  _320
REMARK  132  A    between atoms: _320  and  _321
REMARK  133  A    between atoms: _321  and  _322
REMARK  134  A    between atoms: _327  and  _329
REMARK  135  A    between atoms: _329  and  _330
REMARK  136  A    between atoms: _329  and  _332
REMARK  137  A    between atoms: _332  and  _333
REMARK  138  A    between atoms: _338  and  _339
REMARK  139  A    between atoms: _341  and  _343
REMARK  140  A    between atoms: _343  and  _344
REMARK  141  A    between atoms: _343  and  _346
REMARK  142  A    between atoms: _346  and  _347
REMARK  143  A    between atoms: _350  and  _352
REMARK  144  A    between atoms: _352  and  _353
REMARK  145  A    between atoms: _352  and  _355
REMARK  146  A    between atoms: _357  and  _359
REMARK  147  A    between atoms: _359  and  _360
REMARK  148  A    between atoms: _363  and  _365
REMARK  149  A    between atoms: _365  and  _366
REMARK  150  A    between atoms: _365  and  _368
REMARK  151  A    between atoms: _368  and  _369
REMARK  152  A    between atoms: _369  and  _370
REMARK  153  A    between atoms: _370  and  _371
REMARK  154  A    between atoms: _371  and  _372
REMARK  155  A    between atoms: _376  and  _378
REMARK  156  A    between atoms: _378  and  _379
REMARK  157  A    between atoms: _378  and  _381
REMARK  158  A    between atoms: _381  and  _382
REMARK  159  A    between atoms: _385  and  _387
REMARK  160  A    between atoms: _387  and  _388
REMARK  161  A    between atoms: _391  and  _393
REMARK  162  A    between atoms: _393  and  _394
REMARK  163  A    between atoms: _393  and  _396
REMARK  164  A    between atoms: _396  and  _397
REMARK  165  A    between atoms: _397  and  _511
REMARK  166  A    between atoms: _398  and  _400
REMARK  167  A    between atoms: _400  and  _401
REMARK  168  A    between atoms: _400  and  _403
REMARK  169  A    between atoms: _403  and  _404
REMARK  170  A    between atoms: _404  and  _405
REMARK  171  A    between atoms: _405  and  _406
REMARK  172  A    between atoms: _406  and  _407
REMARK  173  A    between atoms: _411  and  _413
REMARK  174  A    between atoms: _413  and  _414
REMARK  175  A    between atoms: _416  and  _418
REMARK  176  A    between atoms: _418  and  _419
REMARK  177  A    between atoms: _418  and  _421
REMARK  178  A    between atoms: _421  and  _422
REMARK  179  A    between atoms: _425  and  _427
REMARK  180  A    between atoms: _427  and  _428
REMARK  181  A    between atoms: _427  and  _430
REMARK  182  A    between atoms: _430  and  _431
REMARK  183  A    between atoms: _433  and  _435
REMARK  184  A    between atoms: _435  and  _436
REMARK  185  A    between atoms: _438  and  _440
REMARK  186  A    between atoms: _440  and  _441
REMARK  187  A    between atoms: _443  and  _445
REMARK  188  A    between atoms: _445  and  _446
REMARK  189  A    between atoms: _445  and  _448
REMARK  190  A    between atoms: _448  and  _449
REMARK  191  A    between atoms: _452  and  _454
REMARK  192  A    between atoms: _454  and  _455
REMARK  193  A    between atoms: _454  and  _457
REMARK  194  A    between atoms: _457  and  _458
REMARK  195  A    between atoms: _461  and  _463
REMARK  196  A    between atoms: _463  and  _464
REMARK  197  A    between atoms: _463  and  _466
REMARK  198  A    between atoms: _466  and  _467
REMARK  199  A    between atoms: _469  and  _471
REMARK  200  A    between atoms: _471  and  _472
REMARK  201  A    between atoms: _471  and  _474
REMARK  202  A    between atoms: _474  and  _475
REMARK  203  A    between atoms: _485  and  _487
REMARK  204  A    between atoms: _487  and  _488
REMARK  205  A    between atoms: _490  and  _492
REMARK  206  A    between atoms: _492  and  _493
REMARK  207  A    between atoms: _492  and  _495
REMARK  208  A    between atoms: _495  and  _496
REMARK  209  A    between atoms: _496  and  _497
REMARK  210  A    between atoms: _500  and  _502
REMARK  211  A    between atoms: _502  and  _503
REMARK  212  A    between atoms: _505  and  _507
REMARK  213  A    between atoms: _507  and  _508
REMARK  214  A    between atoms: _507  and  _510
REMARK  215  A    between atoms: _510  and  _511
REMARK  216  A    between atoms: _512  and  _514
REMARK  217  A    between atoms: _514  and  _515
REMARK  218  A    between atoms: _518  and  _520
REMARK  219  A    between atoms: _520  and  _521
REMARK  220  A    between atoms: _520  and  _523
REMARK  221  A    between atoms: _523  and  _524
REMARK  222  A    between atoms: _524  and  _525
REMARK  223  A    between atoms: _530  and  _532
REMARK  224  A    between atoms: _532  and  _533
REMARK  225  A    between atoms: _532  and  _535
REMARK  226  A    between atoms: _535  and  _536
REMARK  227  A    between atoms: _536  and  _537
REMARK  228  A    between atoms: _537  and  _538
REMARK  229  A    between atoms: _548  and  _549
REMARK  230  A    between atoms: _554  and  _556
REMARK  231  A    between atoms: _556  and  _557
REMARK  232  A    between atoms: _559  and  _561
REMARK  233  A    between atoms: _561  and  _562
REMARK  234  A    between atoms: _561  and  _564
REMARK  235  A    between atoms: _567  and  _569
REMARK  236  A    between atoms: _569  and  _570
REMARK  237  A    between atoms: _569  and  _572
REMARK  238  A    between atoms: _572  and  _573
REMARK  239  A    between atoms: _578  and  _579
REMARK  240  A    between atoms: _581  and  _583
REMARK  241  A    between atoms: _583  and  _584
REMARK  242  A    between atoms: _583  and  _586
REMARK  243  A    between atoms: _586  and  _587
REMARK                            x       y       z     vdW  Elec       q    Type
REMARK                         _______ _______ _______ _____ _____    ______ ____
ROOT
ATOM      1  C   GLY A   3      30.862 -12.175  28.082  0.00  0.00    +0.243 C 
ATOM      2  O   GLY A   3      29.851 -11.561  28.417  0.00  0.00    -0.273 OA
ATOM      3  N   VAL A   4      30.831 -13.463  27.721  0.00  0.00    -0.297 N 
ATOM      4  H   VAL A   4      31.713 -13.905  27.391  0.00  0.00    +0.150 HD
ENDROOT
BRANCH   3   5
ATOM      5  CA  VAL A   4      29.605 -14.290  27.768  0.00  0.00    +0.149 C 
BRANCH   5   6
ATOM      6  C   VAL A   4      29.760 -15.265  28.910  0.00  0.00    +0.241 C 
ATOM      7  N   TYR A   5      28.739 -15.284  29.789  0.00  0.00    -0.297 N 
ATOM      8  H   TYR A   5      27.914 -14.686  29.580  0.00  0.00    +0.150 HD
ATOM      9  O   VAL A   4      30.784 -15.957  29.014  0.00  0.00    -0.273 OA
BRANCH   7  10
ATOM     10  CA  TYR A   5      28.702 -16.072  31.000  0.00  0.00    +0.153 C 
BRANCH  10  11
ATOM     11  C   TYR A   5      27.526 -17.027  31.016  0.00  0.00    +0.241 C 
ATOM     12  N   THR A   6      27.679 -18.177  31.693  0.00  0.00    -0.296 N 
ATOM     13  H   THR A   6      28.617 -18.431  32.065  0.00  0.00    +0.150 HD
ATOM     14  O   TYR A   5      26.479 -16.712  30.468  0.00  0.00    -0.273 OA
BRANCH  12  15
ATOM     15  CA  THR A   6      26.551 -19.077  31.916  0.00  0.00    +0.164 C 
BRANCH  15  16
ATOM     16  CB  THR A   6      27.026 -20.406  32.519  0.00  0.00    +0.136 C 
ATOM     17  CG2 THR A   6      25.858 -21.387  32.801  0.00  0.00    +0.034 C 
BRANCH  16  18
ATOM     18  OG1 THR A   6      27.930 -21.002  31.595  0.00  0.00    -0.382 OA
ATOM     19  HG1 THR A   6      28.253 -21.864  31.960  0.00  0.00    +0.210 HD
ENDBRANCH  16  18
ENDBRANCH  15  16
BRANCH  15  20
ATOM     20  C   THR A   6      25.605 -18.319  32.871  0.00  0.00    +0.229 C 
ATOM     21  O   THR A   6      26.049 -17.837  33.917  0.00  0.00    -0.286 OA
ENDBRANCH  15  20
ENDBRANCH  12  15
ENDBRANCH  10  11
BRANCH  10  22
ATOM     22  CB  TYR A   5      28.583 -15.116  32.222  0.00  0.00    +0.055 C 
BRANCH  22  23
ATOM     23  CG  TYR A   5      29.760 -14.161  32.364  0.00  0.00    -0.020 A 
ATOM     24  CD2 TYR A   5      30.760 -14.391  33.308  0.00  0.00    -0.001 A 
ATOM     25  CE2 TYR A   5      31.853 -13.538  33.430  0.00  0.00    +0.036 A 
ATOM     26  CZ  TYR A   5      31.957 -12.432  32.597  0.00  0.00    +0.134 A 
ATOM     27  CE1 TYR A   5      30.968 -12.174  31.659  0.00  0.00    +0.036 A 
ATOM     28  CD1 TYR A   5      29.868 -13.024  31.560  0.00  0.00    -0.001 A 
BRANCH  26  29
ATOM     29  OH  TYR A   5      33.030 -11.583  32.738  0.00  0.00    -0.506 OA
ATOM     30  HH  TYR A   5      32.959 -10.850  32.076  0.00  0.00    +0.292 HD
ENDBRANCH  26  29
ENDBRANCH  22  23
ENDBRANCH  10  22
ENDBRANCH   7  10
ENDBRANCH   5   6
BRANCH   5  31
ATOM     31  CB  VAL A   4      29.276 -14.980  26.417  0.00  0.00    +0.027 C 
ATOM     32  CG2 VAL A   4      27.881 -15.614  26.451  0.00  0.00    +0.002 C 
ATOM     33  CG1 VAL A   4      29.388 -13.983  25.242  0.00  0.00    +0.002 C 
ENDBRANCH   5  31
ENDBRANCH   3   5
BRANCH   1  34
ATOM     34  CA  GLY A   3      32.189 -11.438  27.973  0.00  0.00    +0.176 C 
BRANCH  34  36
ATOM     35  C   PRO A   2      31.405  -9.825  26.312  0.00  0.00    +0.241 C 
ATOM     36  N   GLY A   3      31.870 -10.098  27.525  0.00  0.00    -0.295 N 
ATOM     37  H   GLY A   3      32.013  -9.309  28.188  0.00  0.00    +0.150 HD
ATOM     38  O   PRO A   2      31.322 -10.646  25.414  0.00  0.00    -0.273 OA
BRANCH  35  42
ATOM     39  C   ARG A   1      32.375  -8.063  24.074  0.00  0.00    +0.241 C 
ATOM     40  O   ARG A   1      33.387  -8.215  24.759  0.00  0.00    -0.273 OA
ATOM     41  N   PRO A   2      31.138  -8.042  24.624  0.00  0.00    -0.272 N 
ATOM     42  CA  PRO A   2      30.987  -8.382  26.054  0.00  0.00    +0.152 C 
ATOM     43  CB  PRO A   2      29.483  -8.231  26.323  0.00  0.00    +0.031 C 
ATOM     44  CG  PRO A   2      28.864  -7.715  25.065  0.00  0.00    +0.024 C 
ATOM     45  CD  PRO A   2      29.826  -7.894  23.949  0.00  0.00    +0.094 C 
BRANCH  39  46
ATOM     46  CA  ARG A   1      32.524  -7.713  22.601  0.00  0.00    +0.145 C 
BRANCH  46  47
ATOM     47  N   ARG A   1      32.448  -6.243  22.482  0.00  0.00    -0.238 NA
ATOM     48  H   ARG A   1      33.007  -5.672  23.148  0.00  0.00    +0.142 HD
ENDBRANCH  46  47
BRANCH  46  49
ATOM     49  CB  ARG A   1      33.841  -8.264  22.045  0.00  0.00    +0.030 C 
BRANCH  49  50
ATOM     50  CG  ARG A   1      33.991  -8.164  20.531  0.00  0.00    +0.045 C 
BRANCH  50  51
ATOM     51  CD  ARG A   1      32.937  -8.907  19.727  0.00  0.00    +0.174 C 
BRANCH  51  52
ATOM     52  NE  ARG A   1      33.409  -9.087  18.347  0.00  0.00    -0.265 N 
ATOM     53  HE  ARG A   1      34.202  -8.496  18.025  0.00  0.00    +0.259 HD
ATOM     54  CZ  ARG A   1      32.894  -9.951  17.484  0.00  0.00    +0.342 C 
ATOM     55  NH2 ARG A   1      31.856 -10.701  17.827  0.00  0.00    -0.292 N 
ATOM     56 HH21 ARG A   1      31.442 -10.613  18.777  0.00  0.00    +0.255 HD
ATOM     57 HH22 ARG A   1      31.456 -11.377  17.146  0.00  0.00    +0.255 HD
ATOM     58  NH1 ARG A   1      33.421 -10.083  16.275  0.00  0.00    -0.292 N 
ATOM     59 HH11 ARG A   1      34.242  -9.507  16.000  0.00  0.00    +0.255 HD
ATOM     60 HH12 ARG A   1      33.013 -10.762  15.601  0.00  0.00    +0.255 HD
ENDBRANCH  51  52
ENDBRANCH  50  51
ENDBRANCH  49  50
ENDBRANCH  46  49
ENDBRANCH  39  46
ENDBRANCH  35  42
ENDBRANCH  34  36
ENDBRANCH   1  34
TORSDOF 21
REMARK  Name = ../refined-set-2016/4x6o/4x6o_pocket.pdb
REMARK  243 active torsions:
REMARK  status: ('A' for Active; 'I' for Inactive)
REMARK    1  A    between atoms: _1  and  _5
REMARK    2  A    between atoms: _5  and  _6
REMARK    3  A    between atoms: _5  and  _8
REMARK    4  A    between atoms: _8  and  _9
REMARK    5  A    between atoms: _12  and  _14
REMARK    6  A    between atoms: _14  and  _15
REMARK    7  A    between atoms: _14  and  _17
REMARK    8  A    between atoms: _20  and  _22
REMARK    9  A    between atoms: _22  and  _23
REMARK   10  A    between atoms: _22  and  _25
REMARK   11  A    between atoms: _25  and  _26
REMARK   12  A    between atoms: _29  and  _31
REMARK   13  A    between atoms: _31  and  _32
REMARK   14  A    between atoms: _31  and  _34
REMARK   15  A    between atoms: _34  and  _35
REMARK   16  A    between atoms: _38  and  _40
REMARK   17  A    between atoms: _40  and  _41
REMARK   18  A    between atoms: _40  and  _43
REMARK   19  A    between atoms: _43  and  _44
REMARK   20  A    between atoms: _49  and  _51
REMARK   21  A    between atoms: _51  and  _52
REMARK   22  A    between atoms: _51  and  _54
REMARK   23  A    between atoms: _54  and  _55
REMARK   24  A    between atoms: _58  and  _60
REMARK   25  A    between atoms: _60  and  _61
REMARK   26  A    between atoms: _60  and  _63
REMARK   27  A    between atoms: _63  and  _64
REMARK   28  A    between atoms: _67  and  _69
REMARK   29  A    between atoms: _69  and  _70
REMARK   30  A    between atoms: _69  and  _72
REMARK   31  A    between atoms: _72  and  _73
REMARK   32  A    between atoms: _73  and  _74
REMARK   33  A    between atoms: _79  and  _81
REMARK   34  A    between atoms: _81  and  _82
REMARK   35  A    between atoms: _81  and  _84
REMARK   36  A    between atoms: _84  and  _85
REMARK   37  A    between atoms: _85  and  _86
REMARK   38  A    between atoms: _86  and  _87
REMARK   39  A    between atoms: _96  and  _98
REMARK   40  A    between atoms: _98  and  _99
REMARK   41  A    between atoms: _98  and  _101
REMARK   42  A    between atoms: _101  and  _102
REMARK   43  A    between atoms: _107  and  _109
REMARK   44  A    between atoms: _109  and  _110
REMARK   45  A    between atoms: _109  and  _112
REMARK   46  A    between atoms: _112  and  _113
REMARK   47  A    between atoms: _116  and  _118
REMARK   48  A    between atoms: _118  and  _119
REMARK   49  A    between atoms: _118  and  _121
REMARK   50  A    between atoms: _121  and  _122
REMARK   51  A    between atoms: _122  and  _157
REMARK   52  A    between atoms: _123  and  _125
REMARK   53  A    between atoms: _125  and  _126
REMARK   54  A    between atoms: _128  and  _130
REMARK   55  A    between atoms: _130  and  _131
REMARK   56  A    between atoms: _134  and  _136
REMARK   57  A    between atoms: _136  and  _137
REMARK   58  A    between atoms: _140  and  _142
REMARK   59  A    between atoms: _142  and  _143
REMARK   60  A    between atoms: _142  and  _145
REMARK   61  A    between atoms: _145  and  _146
REMARK   62  A    between atoms: _151  and  _153
REMARK   63  A    between atoms: _153  and  _154
REMARK   64  A    between atoms: _153  and  _156
REMARK   65  A    between atoms: _156  and  _157
REMARK   66  A    between atoms: _158  and  _160
REMARK   67  A    between atoms: _160  and  _161
REMARK   68  A    between atoms: _160  and  _163
REMARK   69  A    between atoms: _163  and  _164
REMARK   70  A    between atoms: _170  and  _172
REMARK   71  A    between atoms: _172  and  _173
REMARK   72  A    between atoms: _172  and  _175
REMARK   73  A    between atoms: _175  and  _176
REMARK   74  A    between atoms: _181  and  _182
REMARK   75  A    between atoms: _184  and  _186
REMARK   76  A    between atoms: _186  and  _187
REMARK   77  A    between atoms: _186  and  _189
REMARK   78  A    between atoms: _192  and  _194
REMARK   79  A    between atoms: _194  and  _195
REMARK   80  A    between atoms: _194  and  _197
REMARK   81  A    between atoms: _197  and  _198
REMARK   82  A    between atoms: _198  and  _199
REMARK   83  A    between atoms: _204  and  _206
REMARK   84  A    between atoms: _206  and  _207
REMARK   85  A    between atoms: _210  and  _212
REMARK   86  A    between atoms: _212  and  _213
REMARK   87  A    between atoms: _212  and  _215
REMARK   88  A    between atoms: _215  and  _216
REMARK   89  A    between atoms: _219  and  _221
REMARK   90  A    between atoms: _221  and  _222
REMARK   91  A    between atoms: _221  and  _224
REMARK   92  A    between atoms: _227  and  _229
REMARK   93  A    between atoms: _229  and  _230
REMARK   94  A    between atoms: _229  and  _232
REMARK   95  A    between atoms: _232  and  _233
REMARK   96  A    between atoms: _243  and  _245
REMARK   97  A    between atoms: _245  and  _246
REMARK   98  A    between atoms: _248  and  _250
REMARK   99  A    between atoms: _250  and  _251
REMARK  100  A    between atoms: _250  and  _253
REMARK  101  A    between atoms: _253  and  _254
REMARK  102  A    between atoms: _259  and  _260
REMARK  103  A    between atoms: _262  and  _264
REMARK  104  A    between atoms: _264  and  _265
REMARK  105  A    between atoms: _264  and  _267
REMARK  106  A    between atoms: _267  and  _268
REMARK  107  A    between atoms: _268  and  _269
REMARK  108  A    between atoms: _269  and  _270
REMARK  109  A    between atoms: _270  and  _271
REMARK  110  A    between atoms: _275  and  _277
REMARK  111  A    between atoms: _277  and  _278
REMARK  112  A    between atoms: _277  and  _280
REMARK  113  A    between atoms: _280  and  _281
REMARK  114  A    between atoms: _284  and  _286
REMARK  115  A    between atoms: _286  and  _287
REMARK  116  A    between atoms: _286  and  _289
REMARK  117  A    between atoms: _289  and  _290
REMARK  118  A    between atoms: _293  and  _295
REMARK  119  A    between atoms: _295  and  _296
REMARK  120  A    between atoms: _295  and  _298
REMARK  121  A    between atoms: _298  and  _299
REMARK  122  A    between atoms: _299  and  _300
REMARK  123  A    between atoms: _300  and  _301
REMARK  124  A    between atoms: _301  and  _302
REMARK  125  A    between atoms: _306  and  _308
REMARK  126  A    between atoms: _308  and  _309
REMARK  127  A    between atoms: _308  and  _311
REMARK  128  A    between atoms: _311  and  _312
REMARK  129  A    between atoms: _315  and  _317
REMARK  130  A    between atoms: _317  and  _318
REMARK  131  A    between atoms: _317  and  _320
REMARK  132  A    between atoms: _320  and  _321
REMARK  133  A    between atoms: _321  and  _322
REMARK  134  A    between atoms: _327  and  _329
REMARK  135  A    between atoms: _329  and  _330
REMARK  136  A    between atoms: _329  and  _332
REMARK  137  A    between atoms: _332  and  _333
REMARK  138  A    between atoms: _338  and  _339
REMARK  139  A    between atoms: _341  and  _343
REMARK  140  A    between atoms: _343  and  _344
REMARK  141  A    between atoms: _343  and  _346
REMARK  142  A    between atoms: _346  and  _347
REMARK  143  A    between atoms: _350  and  _352
REMARK  144  A    between atoms: _352  and  _353
REMARK  145  A    between atoms: _352  and  _355
REMARK  146  A    between atoms: _357  and  _359
REMARK  147  A    between atoms: _359  and  _360
REMARK  148  A    between atoms: _363  and  _365
REMARK  149  A    between atoms: _365  and  _366
REMARK  150  A    between atoms: _365  and  _368
REMARK  151  A    between atoms: _368  and  _369
REMARK  152  A    between atoms: _369  and  _370
REMARK  153  A    between atoms: _370  and  _371
REMARK  154  A    between atoms: _371  and  _372
REMARK  155  A    between atoms: _376  and  _378
REMARK  156  A    between atoms: _378  and  _379
REMARK  157  A    between atoms: _378  and  _381
REMARK  158  A    between atoms: _381  and  _382
REMARK  159  A    between atoms: _385  and  _387
REMARK  160  A    between atoms: _387  and  _388
REMARK  161  A    between atoms: _391  and  _393
REMARK  162  A    between atoms: _393  and  _394
REMARK  163  A    between atoms: _393  and  _396
REMARK  164  A    between atoms: _396  and  _397
REMARK  165  A    between atoms: _397  and  _511
REMARK  166  A    between atoms: _398  and  _400
REMARK  167  A    between atoms: _400  and  _401
REMARK  168  A    between atoms: _400  and  _403
REMARK  169  A    between atoms: _403  and  _404
REMARK  170  A    between atoms: _404  and  _405
REMARK  171  A    between atoms: _405  and  _406
REMARK  172  A    between atoms: _406  and  _407
REMARK  173  A    between atoms: _411  and  _413
REMARK  174  A    between atoms: _413  and  _414
REMARK  175  A    between atoms: _416  and  _418
REMARK  176  A    between atoms: _418  and  _419
REMARK  177  A    between atoms: _418  and  _421
REMARK  178  A    between atoms: _421  and  _422
REMARK  179  A    between atoms: _425  and  _427
REMARK  180  A    between atoms: _427  and  _428
REMARK  181  A    between atoms: _427  and  _430
REMARK  182  A    between atoms: _430  and  _431
REMARK  183  A    between atoms: _433  and  _435
REMARK  184  A    between atoms: _435  and  _436
REMARK  185  A    between atoms: _438  and  _440
REMARK  186  A    between atoms: _440  and  _441
REMARK  187  A    between atoms: _443  and  _445
REMARK  188  A    between atoms: _445  and  _446
REMARK  189  A    between atoms: _445  and  _448
REMARK  190  A    between atoms: _448  and  _449
REMARK  191  A    between atoms: _452  and  _454
REMARK  192  A    between atoms: _454  and  _455
REMARK  193  A    between atoms: _454  and  _457
REMARK  194  A    between atoms: _457  and  _458
REMARK  195  A    between atoms: _461  and  _463
REMARK  196  A    between atoms: _463  and  _464
REMARK  197  A    between atoms: _463  and  _466
REMARK  198  A    between atoms: _466  and  _467
REMARK  199  A    between atoms: _469  and  _471
REMARK  200  A    between atoms: _471  and  _472
REMARK  201  A    between atoms: _471  and  _474
REMARK  202  A    between atoms: _474  and  _475
REMARK  203  A    between atoms: _485  and  _487
REMARK  204  A    between atoms: _487  and  _488
REMARK  205  A    between atoms: _490  and  _492
REMARK  206  A    between atoms: _492  and  _493
REMARK  207  A    between atoms: _492  and  _495
REMARK  208  A    between atoms: _495  and  _496
REMARK  209  A    between atoms: _496  and  _497
REMARK  210  A    between atoms: _500  and  _502
REMARK  211  A    between atoms: _502  and  _503
REMARK  212  A    between atoms: _505  and  _507
REMARK  213  A    between atoms: _507  and  _508
REMARK  214  A    between atoms: _507  and  _510
REMARK  215  A    between atoms: _510  and  _511
REMARK  216  A    between atoms: _512  and  _514
REMARK  217  A    between atoms: _514  and  _515
REMARK  218  A    between atoms: _518  and  _520
REMARK  219  A    between atoms: _520  and  _521
REMARK  220  A    between atoms: _520  and  _523
REMARK  221  A    between atoms: _523  and  _524
REMARK  222  A    between atoms: _524  and  _525
REMARK  223  A    between atoms: _530  and  _532
REMARK  224  A    between atoms: _532  and  _533
REMARK  225  A    between atoms: _532  and  _535
REMARK  226  A    between atoms: _535  and  _536
REMARK  227  A    between atoms: _536  and  _537
REMARK  228  A    between atoms: _537  and  _538
REMARK  229  A    between atoms: _548  and  _549
REMARK  230  A    between atoms: _554  and  _556
REMARK  231  A    between atoms: _556  and  _557
REMARK  232  A    between atoms: _559  and  _561
REMARK  233  A    between atoms: _561  and  _562
REMARK  234  A    between atoms: _561  and  _564
REMARK  235  A    between atoms: _567  and  _569
REMARK  236  A    between atoms: _569  and  _570
REMARK  237  A    between atoms: _569  and  _572
REMARK  238  A    between atoms: _572  and  _573
REMARK  239  A    between atoms: _578  and  _579
REMARK  240  A    between atoms: _581  and  _583
REMARK  241  A    between atoms: _583  and  _584
REMARK  242  A    between atoms: _583  and  _586
REMARK  243  A    between atoms: _586  and  _587
REMARK                            x       y       z     vdW  Elec       q    Type
REMARK                         _______ _______ _______ _____ _____    ______ ____
ROOT
ATOM      1  O   HOH     1      39.700 -11.683  18.946  0.00  0.00    +0.000 OA
ENDROOT
TORSDOF 0
REMARK  Name = ../refined-set-2016/4x6o/4x6o_pocket.pdb
REMARK  243 active torsions:
REMARK  status: ('A' for Active; 'I' for Inactive)
REMARK    1  A    between atoms: _1  and  _5
REMARK    2  A    between atoms: _5  and  _6
REMARK    3  A    between atoms: _5  and  _8
REMARK    4  A    between atoms: _8  and  _9
REMARK    5  A    between atoms: _12  and  _14
REMARK    6  A    between atoms: _14  and  _15
REMARK    7  A    between atoms: _14  and  _17
REMARK    8  A    between atoms: _20  and  _22
REMARK    9  A    between atoms: _22  and  _23
REMARK   10  A    between atoms: _22  and  _25
REMARK   11  A    between atoms: _25  and  _26
REMARK   12  A    between atoms: _29  and  _31
REMARK   13  A    between atoms: _31  and  _32
REMARK   14  A    between atoms: _31  and  _34
REMARK   15  A    between atoms: _34  and  _35
REMARK   16  A    between atoms: _38  and  _40
REMARK   17  A    between atoms: _40  and  _41
REMARK   18  A    between atoms: _40  and  _43
REMARK   19  A    between atoms: _43  and  _44
REMARK   20  A    between atoms: _49  and  _51
REMARK   21  A    between atoms: _51  and  _52
REMARK   22  A    between atoms: _51  and  _54
REMARK   23  A    between atoms: _54  and  _55
REMARK   24  A    between atoms: _58  and  _60
REMARK   25  A    between atoms: _60  and  _61
REMARK   26  A    between atoms: _60  and  _63
REMARK   27  A    between atoms: _63  and  _64
REMARK   28  A    between atoms: _67  and  _69
REMARK   29  A    between atoms: _69  and  _70
REMARK   30  A    between atoms: _69  and  _72
REMARK   31  A    between atoms: _72  and  _73
REMARK   32  A    between atoms: _73  and  _74
REMARK   33  A    between atoms: _79  and  _81
REMARK   34  A    between atoms: _81  and  _82
REMARK   35  A    between atoms: _81  and  _84
REMARK   36  A    between atoms: _84  and  _85
REMARK   37  A    between atoms: _85  and  _86
REMARK   38  A    between atoms: _86  and  _87
REMARK   39  A    between atoms: _96  and  _98
REMARK   40  A    between atoms: _98  and  _99
REMARK   41  A    between atoms: _98  and  _101
REMARK   42  A    between atoms: _101  and  _102
REMARK   43  A    between atoms: _107  and  _109
REMARK   44  A    between atoms: _109  and  _110
REMARK   45  A    between atoms: _109  and  _112
REMARK   46  A    between atoms: _112  and  _113
REMARK   47  A    between atoms: _116  and  _118
REMARK   48  A    between atoms: _118  and  _119
REMARK   49  A    between atoms: _118  and  _121
REMARK   50  A    between atoms: _121  and  _122
REMARK   51  A    between atoms: _122  and  _157
REMARK   52  A    between atoms: _123  and  _125
REMARK   53  A    between atoms: _125  and  _126
REMARK   54  A    between atoms: _128  and  _130
REMARK   55  A    between atoms: _130  and  _131
REMARK   56  A    between atoms: _134  and  _136
REMARK   57  A    between atoms: _136  and  _137
REMARK   58  A    between atoms: _140  and  _142
REMARK   59  A    between atoms: _142  and  _143
REMARK   60  A    between atoms: _142  and  _145
REMARK   61  A    between atoms: _145  and  _146
REMARK   62  A    between atoms: _151  and  _153
REMARK   63  A    between atoms: _153  and  _154
REMARK   64  A    between atoms: _153  and  _156
REMARK   65  A    between atoms: _156  and  _157
REMARK   66  A    between atoms: _158  and  _160
REMARK   67  A    between atoms: _160  and  _161
REMARK   68  A    between atoms: _160  and  _163
REMARK   69  A    between atoms: _163  and  _164
REMARK   70  A    between atoms: _170  and  _172
REMARK   71  A    between atoms: _172  and  _173
REMARK   72  A    between atoms: _172  and  _175
REMARK   73  A    between atoms: _175  and  _176
REMARK   74  A    between atoms: _181  and  _182
REMARK   75  A    between atoms: _184  and  _186
REMARK   76  A    between atoms: _186  and  _187
REMARK   77  A    between atoms: _186  and  _189
REMARK   78  A    between atoms: _192  and  _194
REMARK   79  A    between atoms: _194  and  _195
REMARK   80  A    between atoms: _194  and  _197
REMARK   81  A    between atoms: _197  and  _198
REMARK   82  A    between atoms: _198  and  _199
REMARK   83  A    between atoms: _204  and  _206
REMARK   84  A    between atoms: _206  and  _207
REMARK   85  A    between atoms: _210  and  _212
REMARK   86  A    between atoms: _212  and  _213
REMARK   87  A    between atoms: _212  and  _215
REMARK   88  A    between atoms: _215  and  _216
REMARK   89  A    between atoms: _219  and  _221
REMARK   90  A    between atoms: _221  and  _222
REMARK   91  A    between atoms: _221  and  _224
REMARK   92  A    between atoms: _227  and  _229
REMARK   93  A    between atoms: _229  and  _230
REMARK   94  A    between atoms: _229  and  _232
REMARK   95  A    between atoms: _232  and  _233
REMARK   96  A    between atoms: _243  and  _245
REMARK   97  A    between atoms: _245  and  _246
REMARK   98  A    between atoms: _248  and  _250
REMARK   99  A    between atoms: _250  and  _251
REMARK  100  A    between atoms: _250  and  _253
REMARK  101  A    between atoms: _253  and  _254
REMARK  102  A    between atoms: _259  and  _260
REMARK  103  A    between atoms: _262  and  _264
REMARK  104  A    between atoms: _264  and  _265
REMARK  105  A    between atoms: _264  and  _267
REMARK  106  A    between atoms: _267  and  _268
REMARK  107  A    between atoms: _268  and  _269
REMARK  108  A    between atoms: _269  and  _270
REMARK  109  A    between atoms: _270  and  _271
REMARK  110  A    between atoms: _275  and  _277
REMARK  111  A    between atoms: _277  and  _278
REMARK  112  A    between atoms: _277  and  _280
REMARK  113  A    between atoms: _280  and  _281
REMARK  114  A    between atoms: _284  and  _286
REMARK  115  A    between atoms: _286  and  _287
REMARK  116  A    between atoms: _286  and  _289
REMARK  117  A    between atoms: _289  and  _290
REMARK  118  A    between atoms: _293  and  _295
REMARK  119  A    between atoms: _295  and  _296
REMARK  120  A    between atoms: _295  and  _298
REMARK  121  A    between atoms: _298  and  _299
REMARK  122  A    between atoms: _299  and  _300
REMARK  123  A    between atoms: _300  and  _301
REMARK  124  A    between atoms: _301  and  _302
REMARK  125  A    between atoms: _306  and  _308
REMARK  126  A    between atoms: _308  and  _309
REMARK  127  A    between atoms: _308  and  _311
REMARK  128  A    between atoms: _311  and  _312
REMARK  129  A    between atoms: _315  and  _317
REMARK  130  A    between atoms: _317  and  _318
REMARK  131  A    between atoms: _317  and  _320
REMARK  132  A    between atoms: _320  and  _321
REMARK  133  A    between atoms: _321  and  _322
REMARK  134  A    between atoms: _327  and  _329
REMARK  135  A    between atoms: _329  and  _330
REMARK  136  A    between atoms: _329  and  _332
REMARK  137  A    between atoms: _332  and  _333
REMARK  138  A    between atoms: _338  and  _339
REMARK  139  A    between atoms: _341  and  _343
REMARK  140  A    between atoms: _343  and  _344
REMARK  141  A    between atoms: _343  and  _346
REMARK  142  A    between atoms: _346  and  _347
REMARK  143  A    between atoms: _350  and  _352
REMARK  144  A    between atoms: _352  and  _353
REMARK  145  A    between atoms: _352  and  _355
REMARK  146  A    between atoms: _357  and  _359
REMARK  147  A    between atoms: _359  and  _360
REMARK  148  A    between atoms: _363  and  _365
REMARK  149  A    between atoms: _365  and  _366
REMARK  150  A    between atoms: _365  and  _368
REMARK  151  A    between atoms: _368  and  _369
REMARK  152  A    between atoms: _369  and  _370
REMARK  153  A    between atoms: _370  and  _371
REMARK  154  A    between atoms: _371  and  _372
REMARK  155  A    between atoms: _376  and  _378
REMARK  156  A    between atoms: _378  and  _379
REMARK  157  A    between atoms: _378  and  _381
REMARK  158  A    between atoms: _381  and  _382
REMARK  159  A    between atoms: _385  and  _387
REMARK  160  A    between atoms: _387  and  _388
REMARK  161  A    between atoms: _391  and  _393
REMARK  162  A    between atoms: _393  and  _394
REMARK  163  A    between atoms: _393  and  _396
REMARK  164  A    between atoms: _396  and  _397
REMARK  165  A    between atoms: _397  and  _511
REMARK  166  A    between atoms: _398  and  _400
REMARK  167  A    between atoms: _400  and  _401
REMARK  168  A    between atoms: _400  and  _403
REMARK  169  A    between atoms: _403  and  _404
REMARK  170  A    between atoms: _404  and  _405
REMARK  171  A    between atoms: _405  and  _406
REMARK  172  A    between atoms: _406  and  _407
REMARK  173  A    between atoms: _411  and  _413
REMARK  174  A    between atoms: _413  and  _414
REMARK  175  A    between atoms: _416  and  _418
REMARK  176  A    between atoms: _418  and  _419
REMARK  177  A    between atoms: _418  and  _421
REMARK  178  A    between atoms: _421  and  _422
REMARK  179  A    between atoms: _425  and  _427
REMARK  180  A    between atoms: _427  and  _428
REMARK  181  A    between atoms: _427  and  _430
REMARK  182  A    between atoms: _430  and  _431
REMARK  183  A    between atoms: _433  and  _435
REMARK  184  A    between atoms: _435  and  _436
REMARK  185  A    between atoms: _438  and  _440
REMARK  186  A    between atoms: _440  and  _441
REMARK  187  A    between atoms: _443  and  _445
REMARK  188  A    between atoms: _445  and  _446
REMARK  189  A    between atoms: _445  and  _448
REMARK  190  A    between atoms: _448  and  _449
REMARK  191  A    between atoms: _452  and  _454
REMARK  192  A    between atoms: _454  and  _455
REMARK  193  A    between atoms: _454  and  _457
REMARK  194  A    between atoms: _457  and  _458
REMARK  195  A    between atoms: _461  and  _463
REMARK  196  A    between atoms: _463  and  _464
REMARK  197  A    between atoms: _463  and  _466
REMARK  198  A    between atoms: _466  and  _467
REMARK  199  A    between atoms: _469  and  _471
REMARK  200  A    between atoms: _471  and  _472
REMARK  201  A    between atoms: _471  and  _474
REMARK  202  A    between atoms: _474  and  _475
REMARK  203  A    between atoms: _485  and  _487
REMARK  204  A    between atoms: _487  and  _488
REMARK  205  A    between atoms: _490  and  _492
REMARK  206  A    between atoms: _492  and  _493
REMARK  207  A    between atoms: _492  and  _495
REMARK  208  A    between atoms: _495  and  _496
REMARK  209  A    between atoms: _496  and  _497
REMARK  210  A    between atoms: _500  and  _502
REMARK  211  A    between atoms: _502  and  _503
REMARK  212  A    between atoms: _505  and  _507
REMARK  213  A    between atoms: _507  and  _508
REMARK  214  A    between atoms: _507  and  _510
REMARK  215  A    between atoms: _510  and  _511
REMARK  216  A    between atoms: _512  and  _514
REMARK  217  A    between atoms: _514  and  _515
REMARK  218  A    between atoms: _518  and  _520
REMARK  219  A    between atoms: _520  and  _521
REMARK  220  A    between atoms: _520  and  _523
REMARK  221  A    between atoms: _523  and  _524
REMARK  222  A    between atoms: _524  and  _525
REMARK  223  A    between atoms: _530  and  _532
REMARK  224  A    between atoms: _532  and  _533
REMARK  225  A    between atoms: _532  and  _535
REMARK  226  A    between atoms: _535  and  _536
REMARK  227  A    between atoms: _536  and  _537
REMARK  228  A    between atoms: _537  and  _538
REMARK  229  A    between atoms: _548  and  _549
REMARK  230  A    between atoms: _554  and  _556
REMARK  231  A    between atoms: _556  and  _557
REMARK  232  A    between atoms: _559  and  _561
REMARK  233  A    between atoms: _561  and  _562
REMARK  234  A    between atoms: _561  and  _564
REMARK  235  A    between atoms: _567  and  _569
REMARK  236  A    between atoms: _569  and  _570
REMARK  237  A    between atoms: _569  and  _572
REMARK  238  A    between atoms: _572  and  _573
REMARK  239  A    between atoms: _578  and  _579
REMARK  240  A    between atoms: _581  and  _583
REMARK  241  A    between atoms: _583  and  _584
REMARK  242  A    between atoms: _583  and  _586
REMARK  243  A    between atoms: _586  and  _587
REMARK                            x       y       z     vdW  Elec       q    Type
REMARK                         _______ _______ _______ _____ _____    ______ ____
ROOT
ATOM      1  O   HOH     1      37.839 -26.073  26.376  0.00  0.00    +0.000 OA
ENDROOT
TORSDOF 0
REMARK  Name = ../refined-set-2016/4x6o/4x6o_pocket.pdb
REMARK  243 active torsions:
REMARK  status: ('A' for Active; 'I' for Inactive)
REMARK    1  A    between atoms: _1  and  _5
REMARK    2  A    between atoms: _5  and  _6
REMARK    3  A    between atoms: _5  and  _8
REMARK    4  A    between atoms: _8  and  _9
REMARK    5  A    between atoms: _12  and  _14
REMARK    6  A    between atoms: _14  and  _15
REMARK    7  A    between atoms: _14  and  _17
REMARK    8  A    between atoms: _20  and  _22
REMARK    9  A    between atoms: _22  and  _23
REMARK   10  A    between atoms: _22  and  _25
REMARK   11  A    between atoms: _25  and  _26
REMARK   12  A    between atoms: _29  and  _31
REMARK   13  A    between atoms: _31  and  _32
REMARK   14  A    between atoms: _31  and  _34
REMARK   15  A    between atoms: _34  and  _35
REMARK   16  A    between atoms: _38  and  _40
REMARK   17  A    between atoms: _40  and  _41
REMARK   18  A    between atoms: _40  and  _43
REMARK   19  A    between atoms: _43  and  _44
REMARK   20  A    between atoms: _49  and  _51
REMARK   21  A    between atoms: _51  and  _52
REMARK   22  A    between atoms: _51  and  _54
REMARK   23  A    between atoms: _54  and  _55
REMARK   24  A    between atoms: _58  and  _60
REMARK   25  A    between atoms: _60  and  _61
REMARK   26  A    between atoms: _60  and  _63
REMARK   27  A    between atoms: _63  and  _64
REMARK   28  A    between atoms: _67  and  _69
REMARK   29  A    between atoms: _69  and  _70
REMARK   30  A    between atoms: _69  and  _72
REMARK   31  A    between atoms: _72  and  _73
REMARK   32  A    between atoms: _73  and  _74
REMARK   33  A    between atoms: _79  and  _81
REMARK   34  A    between atoms: _81  and  _82
REMARK   35  A    between atoms: _81  and  _84
REMARK   36  A    between atoms: _84  and  _85
REMARK   37  A    between atoms: _85  and  _86
REMARK   38  A    between atoms: _86  and  _87
REMARK   39  A    between atoms: _96  and  _98
REMARK   40  A    between atoms: _98  and  _99
REMARK   41  A    between atoms: _98  and  _101
REMARK   42  A    between atoms: _101  and  _102
REMARK   43  A    between atoms: _107  and  _109
REMARK   44  A    between atoms: _109  and  _110
REMARK   45  A    between atoms: _109  and  _112
REMARK   46  A    between atoms: _112  and  _113
REMARK   47  A    between atoms: _116  and  _118
REMARK   48  A    between atoms: _118  and  _119
REMARK   49  A    between atoms: _118  and  _121
REMARK   50  A    between atoms: _121  and  _122
REMARK   51  A    between atoms: _122  and  _157
REMARK   52  A    between atoms: _123  and  _125
REMARK   53  A    between atoms: _125  and  _126
REMARK   54  A    between atoms: _128  and  _130
REMARK   55  A    between atoms: _130  and  _131
REMARK   56  A    between atoms: _134  and  _136
REMARK   57  A    between atoms: _136  and  _137
REMARK   58  A    between atoms: _140  and  _142
REMARK   59  A    between atoms: _142  and  _143
REMARK   60  A    between atoms: _142  and  _145
REMARK   61  A    between atoms: _145  and  _146
REMARK   62  A    between atoms: _151  and  _153
REMARK   63  A    between atoms: _153  and  _154
REMARK   64  A    between atoms: _153  and  _156
REMARK   65  A    between atoms: _156  and  _157
REMARK   66  A    between atoms: _158  and  _160
REMARK   67  A    between atoms: _160  and  _161
REMARK   68  A    between atoms: _160  and  _163
REMARK   69  A    between atoms: _163  and  _164
REMARK   70  A    between atoms: _170  and  _172
REMARK   71  A    between atoms: _172  and  _173
REMARK   72  A    between atoms: _172  and  _175
REMARK   73  A    between atoms: _175  and  _176
REMARK   74  A    between atoms: _181  and  _182
REMARK   75  A    between atoms: _184  and  _186
REMARK   76  A    between atoms: _186  and  _187
REMARK   77  A    between atoms: _186  and  _189
REMARK   78  A    between atoms: _192  and  _194
REMARK   79  A    between atoms: _194  and  _195
REMARK   80  A    between atoms: _194  and  _197
REMARK   81  A    between atoms: _197  and  _198
REMARK   82  A    between atoms: _198  and  _199
REMARK   83  A    between atoms: _204  and  _206
REMARK   84  A    between atoms: _206  and  _207
REMARK   85  A    between atoms: _210  and  _212
REMARK   86  A    between atoms: _212  and  _213
REMARK   87  A    between atoms: _212  and  _215
REMARK   88  A    between atoms: _215  and  _216
REMARK   89  A    between atoms: _219  and  _221
REMARK   90  A    between atoms: _221  and  _222
REMARK   91  A    between atoms: _221  and  _224
REMARK   92  A    between atoms: _227  and  _229
REMARK   93  A    between atoms: _229  and  _230
REMARK   94  A    between atoms: _229  and  _232
REMARK   95  A    between atoms: _232  and  _233
REMARK   96  A    between atoms: _243  and  _245
REMARK   97  A    between atoms: _245  and  _246
REMARK   98  A    between atoms: _248  and  _250
REMARK   99  A    between atoms: _250  and  _251
REMARK  100  A    between atoms: _250  and  _253
REMARK  101  A    between atoms: _253  and  _254
REMARK  102  A    between atoms: _259  and  _260
REMARK  103  A    between atoms: _262  and  _264
REMARK  104  A    between atoms: _264  and  _265
REMARK  105  A    between atoms: _264  and  _267
REMARK  106  A    between atoms: _267  and  _268
REMARK  107  A    between atoms: _268  and  _269
REMARK  108  A    between atoms: _269  and  _270
REMARK  109  A    between atoms: _270  and  _271
REMARK  110  A    between atoms: _275  and  _277
REMARK  111  A    between atoms: _277  and  _278
REMARK  112  A    between atoms: _277  and  _280
REMARK  113  A    between atoms: _280  and  _281
REMARK  114  A    between atoms: _284  and  _286
REMARK  115  A    between atoms: _286  and  _287
REMARK  116  A    between atoms: _286  and  _289
REMARK  117  A    between atoms: _289  and  _290
REMARK  118  A    between atoms: _293  and  _295
REMARK  119  A    between atoms: _295  and  _296
REMARK  120  A    between atoms: _295  and  _298
REMARK  121  A    between atoms: _298  and  _299
REMARK  122  A    between atoms: _299  and  _300
REMARK  123  A    between atoms: _300  and  _301
REMARK  124  A    between atoms: _301  and  _302
REMARK  125  A    between atoms: _306  and  _308
REMARK  126  A    between atoms: _308  and  _309
REMARK  127  A    between atoms: _308  and  _311
REMARK  128  A    between atoms: _311  and  _312
REMARK  129  A    between atoms: _315  and  _317
REMARK  130  A    between atoms: _317  and  _318
REMARK  131  A    between atoms: _317  and  _320
REMARK  132  A    between atoms: _320  and  _321
REMARK  133  A    between atoms: _321  and  _322
REMARK  134  A    between atoms: _327  and  _329
REMARK  135  A    between atoms: _329  and  _330
REMARK  136  A    between atoms: _329  and  _332
REMARK  137  A    between atoms: _332  and  _333
REMARK  138  A    between atoms: _338  and  _339
REMARK  139  A    between atoms: _341  and  _343
REMARK  140  A    between atoms: _343  and  _344
REMARK  141  A    between atoms: _343  and  _346
REMARK  142  A    between atoms: _346  and  _347
REMARK  143  A    between atoms: _350  and  _352
REMARK  144  A    between atoms: _352  and  _353
REMARK  145  A    between atoms: _352  and  _355
REMARK  146  A    between atoms: _357  and  _359
REMARK  147  A    between atoms: _359  and  _360
REMARK  148  A    between atoms: _363  and  _365
REMARK  149  A    between atoms: _365  and  _366
REMARK  150  A    between atoms: _365  and  _368
REMARK  151  A    between atoms: _368  and  _369
REMARK  152  A    between atoms: _369  and  _370
REMARK  153  A    between atoms: _370  and  _371
REMARK  154  A    between atoms: _371  and  _372
REMARK  155  A    between atoms: _376  and  _378
REMARK  156  A    between atoms: _378  and  _379
REMARK  157  A    between atoms: _378  and  _381
REMARK  158  A    between atoms: _381  and  _382
REMARK  159  A    between atoms: _385  and  _387
REMARK  160  A    between atoms: _387  and  _388
REMARK  161  A    between atoms: _391  and  _393
REMARK  162  A    between atoms: _393  and  _394
REMARK  163  A    between atoms: _393  and  _396
REMARK  164  A    between atoms: _396  and  _397
REMARK  165  A    between atoms: _397  and  _511
REMARK  166  A    between atoms: _398  and  _400
REMARK  167  A    between atoms: _400  and  _401
REMARK  168  A    between atoms: _400  and  _403
REMARK  169  A    between atoms: _403  and  _404
REMARK  170  A    between atoms: _404  and  _405
REMARK  171  A    between atoms: _405  and  _406
REMARK  172  A    between atoms: _406  and  _407
REMARK  173  A    between atoms: _411  and  _413
REMARK  174  A    between atoms: _413  and  _414
REMARK  175  A    between atoms: _416  and  _418
REMARK  176  A    between atoms: _418  and  _419
REMARK  177  A    between atoms: _418  and  _421
REMARK  178  A    between atoms: _421  and  _422
REMARK  179  A    between atoms: _425  and  _427
REMARK  180  A    between atoms: _427  and  _428
REMARK  181  A    between atoms: _427  and  _430
REMARK  182  A    between atoms: _430  and  _431
REMARK  183  A    between atoms: _433  and  _435
REMARK  184  A    between atoms: _435  and  _436
REMARK  185  A    between atoms: _438  and  _440
REMARK  186  A    between atoms: _440  and  _441
REMARK  187  A    between atoms: _443  and  _445
REMARK  188  A    between atoms: _445  and  _446
REMARK  189  A    between atoms: _445  and  _448
REMARK  190  A    between atoms: _448  and  _449
REMARK  191  A    between atoms: _452  and  _454
REMARK  192  A    between atoms: _454  and  _455
REMARK  193  A    between atoms: _454  and  _457
REMARK  194  A    between atoms: _457  and  _458
REMARK  195  A    between atoms: _461  and  _463
REMARK  196  A    between atoms: _463  and  _464
REMARK  197  A    between atoms: _463  and  _466
REMARK  198  A    between atoms: _466  and  _467
REMARK  199  A    between atoms: _469  and  _471
REMARK  200  A    between atoms: _471  and  _472
REMARK  201  A    between atoms: _471  and  _474
REMARK  202  A    between atoms: _474  and  _475
REMARK  203  A    between atoms: _485  and  _487
REMARK  204  A    between atoms: _487  and  _488
REMARK  205  A    between atoms: _490  and  _492
REMARK  206  A    between atoms: _492  and  _493
REMARK  207  A    between atoms: _492  and  _495
REMARK  208  A    between atoms: _495  and  _496
REMARK  209  A    between atoms: _496  and  _497
REMARK  210  A    between atoms: _500  and  _502
REMARK  211  A    between atoms: _502  and  _503
REMARK  212  A    between atoms: _505  and  _507
REMARK  213  A    between atoms: _507  and  _508
REMARK  214  A    between atoms: _507  and  _510
REMARK  215  A    between atoms: _510  and  _511
REMARK  216  A    between atoms: _512  and  _514
REMARK  217  A    between atoms: _514  and  _515
REMARK  218  A    between atoms: _518  and  _520
REMARK  219  A    between atoms: _520  and  _521
REMARK  220  A    between atoms: _520  and  _523
REMARK  221  A    between atoms: _523  and  _524
REMARK  222  A    between atoms: _524  and  _525
REMARK  223  A    between atoms: _530  and  _532
REMARK  224  A    between atoms: _532  and  _533
REMARK  225  A    between atoms: _532  and  _535
REMARK  226  A    between atoms: _535  and  _536
REMARK  227  A    between atoms: _536  and  _537
REMARK  228  A    between atoms: _537  and  _538
REMARK  229  A    between atoms: _548  and  _549
REMARK  230  A    between atoms: _554  and  _556
REMARK  231  A    between atoms: _556  and  _557
REMARK  232  A    between atoms: _559  and  _561
REMARK  233  A    between atoms: _561  and  _562
REMARK  234  A    between atoms: _561  and  _564
REMARK  235  A    between atoms: _567  and  _569
REMARK  236  A    between atoms: _569  and  _570
REMARK  237  A    between atoms: _569  and  _572
REMARK  238  A    between atoms: _572  and  _573
REMARK  239  A    between atoms: _578  and  _579
REMARK  240  A    between atoms: _581  and  _583
REMARK  241  A    between atoms: _583  and  _584
REMARK  242  A    between atoms: _583  and  _586
REMARK  243  A    between atoms: _586  and  _587
REMARK                            x       y       z     vdW  Elec       q    Type
REMARK                         _______ _______ _______ _____ _____    ______ ____
ROOT
ATOM      1  O   HOH     1      38.456 -19.898  20.773  0.00  0.00    +0.000 OA
ENDROOT
TORSDOF 0
REMARK  Name = ../refined-set-2016/4x6o/4x6o_pocket.pdb
REMARK  243 active torsions:
REMARK  status: ('A' for Active; 'I' for Inactive)
REMARK    1  A    between atoms: _1  and  _5
REMARK    2  A    between atoms: _5  and  _6
REMARK    3  A    between atoms: _5  and  _8
REMARK    4  A    between atoms: _8  and  _9
REMARK    5  A    between atoms: _12  and  _14
REMARK    6  A    between atoms: _14  and  _15
REMARK    7  A    between atoms: _14  and  _17
REMARK    8  A    between atoms: _20  and  _22
REMARK    9  A    between atoms: _22  and  _23
REMARK   10  A    between atoms: _22  and  _25
REMARK   11  A    between atoms: _25  and  _26
REMARK   12  A    between atoms: _29  and  _31
REMARK   13  A    between atoms: _31  and  _32
REMARK   14  A    between atoms: _31  and  _34
REMARK   15  A    between atoms: _34  and  _35
REMARK   16  A    between atoms: _38  and  _40
REMARK   17  A    between atoms: _40  and  _41
REMARK   18  A    between atoms: _40  and  _43
REMARK   19  A    between atoms: _43  and  _44
REMARK   20  A    between atoms: _49  and  _51
REMARK   21  A    between atoms: _51  and  _52
REMARK   22  A    between atoms: _51  and  _54
REMARK   23  A    between atoms: _54  and  _55
REMARK   24  A    between atoms: _58  and  _60
REMARK   25  A    between atoms: _60  and  _61
REMARK   26  A    between atoms: _60  and  _63
REMARK   27  A    between atoms: _63  and  _64
REMARK   28  A    between atoms: _67  and  _69
REMARK   29  A    between atoms: _69  and  _70
REMARK   30  A    between atoms: _69  and  _72
REMARK   31  A    between atoms: _72  and  _73
REMARK   32  A    between atoms: _73  and  _74
REMARK   33  A    between atoms: _79  and  _81
REMARK   34  A    between atoms: _81  and  _82
REMARK   35  A    between atoms: _81  and  _84
REMARK   36  A    between atoms: _84  and  _85
REMARK   37  A    between atoms: _85  and  _86
REMARK   38  A    between atoms: _86  and  _87
REMARK   39  A    between atoms: _96  and  _98
REMARK   40  A    between atoms: _98  and  _99
REMARK   41  A    between atoms: _98  and  _101
REMARK   42  A    between atoms: _101  and  _102
REMARK   43  A    between atoms: _107  and  _109
REMARK   44  A    between atoms: _109  and  _110
REMARK   45  A    between atoms: _109  and  _112
REMARK   46  A    between atoms: _112  and  _113
REMARK   47  A    between atoms: _116  and  _118
REMARK   48  A    between atoms: _118  and  _119
REMARK   49  A    between atoms: _118  and  _121
REMARK   50  A    between atoms: _121  and  _122
REMARK   51  A    between atoms: _122  and  _157
REMARK   52  A    between atoms: _123  and  _125
REMARK   53  A    between atoms: _125  and  _126
REMARK   54  A    between atoms: _128  and  _130
REMARK   55  A    between atoms: _130  and  _131
REMARK   56  A    between atoms: _134  and  _136
REMARK   57  A    between atoms: _136  and  _137
REMARK   58  A    between atoms: _140  and  _142
REMARK   59  A    between atoms: _142  and  _143
REMARK   60  A    between atoms: _142  and  _145
REMARK   61  A    between atoms: _145  and  _146
REMARK   62  A    between atoms: _151  and  _153
REMARK   63  A    between atoms: _153  and  _154
REMARK   64  A    between atoms: _153  and  _156
REMARK   65  A    between atoms: _156  and  _157
REMARK   66  A    between atoms: _158  and  _160
REMARK   67  A    between atoms: _160  and  _161
REMARK   68  A    between atoms: _160  and  _163
REMARK   69  A    between atoms: _163  and  _164
REMARK   70  A    between atoms: _170  and  _172
REMARK   71  A    between atoms: _172  and  _173
REMARK   72  A    between atoms: _172  and  _175
REMARK   73  A    between atoms: _175  and  _176
REMARK   74  A    between atoms: _181  and  _182
REMARK   75  A    between atoms: _184  and  _186
REMARK   76  A    between atoms: _186  and  _187
REMARK   77  A    between atoms: _186  and  _189
REMARK   78  A    between atoms: _192  and  _194
REMARK   79  A    between atoms: _194  and  _195
REMARK   80  A    between atoms: _194  and  _197
REMARK   81  A    between atoms: _197  and  _198
REMARK   82  A    between atoms: _198  and  _199
REMARK   83  A    between atoms: _204  and  _206
REMARK   84  A    between atoms: _206  and  _207
REMARK   85  A    between atoms: _210  and  _212
REMARK   86  A    between atoms: _212  and  _213
REMARK   87  A    between atoms: _212  and  _215
REMARK   88  A    between atoms: _215  and  _216
REMARK   89  A    between atoms: _219  and  _221
REMARK   90  A    between atoms: _221  and  _222
REMARK   91  A    between atoms: _221  and  _224
REMARK   92  A    between atoms: _227  and  _229
REMARK   93  A    between atoms: _229  and  _230
REMARK   94  A    between atoms: _229  and  _232
REMARK   95  A    between atoms: _232  and  _233
REMARK   96  A    between atoms: _243  and  _245
REMARK   97  A    between atoms: _245  and  _246
REMARK   98  A    between atoms: _248  and  _250
REMARK   99  A    between atoms: _250  and  _251
REMARK  100  A    between atoms: _250  and  _253
REMARK  101  A    between atoms: _253  and  _254
REMARK  102  A    between atoms: _259  and  _260
REMARK  103  A    between atoms: _262  and  _264
REMARK  104  A    between atoms: _264  and  _265
REMARK  105  A    between atoms: _264  and  _267
REMARK  106  A    between atoms: _267  and  _268
REMARK  107  A    between atoms: _268  and  _269
REMARK  108  A    between atoms: _269  and  _270
REMARK  109  A    between atoms: _270  and  _271
REMARK  110  A    between atoms: _275  and  _277
REMARK  111  A    between atoms: _277  and  _278
REMARK  112  A    between atoms: _277  and  _280
REMARK  113  A    between atoms: _280  and  _281
REMARK  114  A    between atoms: _284  and  _286
REMARK  115  A    between atoms: _286  and  _287
REMARK  116  A    between atoms: _286  and  _289
REMARK  117  A    between atoms: _289  and  _290
REMARK  118  A    between atoms: _293  and  _295
REMARK  119  A    between atoms: _295  and  _296
REMARK  120  A    between atoms: _295  and  _298
REMARK  121  A    between atoms: _298  and  _299
REMARK  122  A    between atoms: _299  and  _300
REMARK  123  A    between atoms: _300  and  _301
REMARK  124  A    between atoms: _301  and  _302
REMARK  125  A    between atoms: _306  and  _308
REMARK  126  A    between atoms: _308  and  _309
REMARK  127  A    between atoms: _308  and  _311
REMARK  128  A    between atoms: _311  and  _312
REMARK  129  A    between atoms: _315  and  _317
REMARK  130  A    between atoms: _317  and  _318
REMARK  131  A    between atoms: _317  and  _320
REMARK  132  A    between atoms: _320  and  _321
REMARK  133  A    between atoms: _321  and  _322
REMARK  134  A    between atoms: _327  and  _329
REMARK  135  A    between atoms: _329  and  _330
REMARK  136  A    between atoms: _329  and  _332
REMARK  137  A    between atoms: _332  and  _333
REMARK  138  A    between atoms: _338  and  _339
REMARK  139  A    between atoms: _341  and  _343
REMARK  140  A    between atoms: _343  and  _344
REMARK  141  A    between atoms: _343  and  _346
REMARK  142  A    between atoms: _346  and  _347
REMARK  143  A    between atoms: _350  and  _352
REMARK  144  A    between atoms: _352  and  _353
REMARK  145  A    between atoms: _352  and  _355
REMARK  146  A    between atoms: _357  and  _359
REMARK  147  A    between atoms: _359  and  _360
REMARK  148  A    between atoms: _363  and  _365
REMARK  149  A    between atoms: _365  and  _366
REMARK  150  A    between atoms: _365  and  _368
REMARK  151  A    between atoms: _368  and  _369
REMARK  152  A    between atoms: _369  and  _370
REMARK  153  A    between atoms: _370  and  _371
REMARK  154  A    between atoms: _371  and  _372
REMARK  155  A    between atoms: _376  and  _378
REMARK  156  A    between atoms: _378  and  _379
REMARK  157  A    between atoms: _378  and  _381
REMARK  158  A    between atoms: _381  and  _382
REMARK  159  A    between atoms: _385  and  _387
REMARK  160  A    between atoms: _387  and  _388
REMARK  161  A    between atoms: _391  and  _393
REMARK  162  A    between atoms: _393  and  _394
REMARK  163  A    between atoms: _393  and  _396
REMARK  164  A    between atoms: _396  and  _397
REMARK  165  A    between atoms: _397  and  _511
REMARK  166  A    between atoms: _398  and  _400
REMARK  167  A    between atoms: _400  and  _401
REMARK  168  A    between atoms: _400  and  _403
REMARK  169  A    between atoms: _403  and  _404
REMARK  170  A    between atoms: _404  and  _405
REMARK  171  A    between atoms: _405  and  _406
REMARK  172  A    between atoms: _406  and  _407
REMARK  173  A    between atoms: _411  and  _413
REMARK  174  A    between atoms: _413  and  _414
REMARK  175  A    between atoms: _416  and  _418
REMARK  176  A    between atoms: _418  and  _419
REMARK  177  A    between atoms: _418  and  _421
REMARK  178  A    between atoms: _421  and  _422
REMARK  179  A    between atoms: _425  and  _427
REMARK  180  A    between atoms: _427  and  _428
REMARK  181  A    between atoms: _427  and  _430
REMARK  182  A    between atoms: _430  and  _431
REMARK  183  A    between atoms: _433  and  _435
REMARK  184  A    between atoms: _435  and  _436
REMARK  185  A    between atoms: _438  and  _440
REMARK  186  A    between atoms: _440  and  _441
REMARK  187  A    between atoms: _443  and  _445
REMARK  188  A    between atoms: _445  and  _446
REMARK  189  A    between atoms: _445  and  _448
REMARK  190  A    between atoms: _448  and  _449
REMARK  191  A    between atoms: _452  and  _454
REMARK  192  A    between atoms: _454  and  _455
REMARK  193  A    between atoms: _454  and  _457
REMARK  194  A    between atoms: _457  and  _458
REMARK  195  A    between atoms: _461  and  _463
REMARK  196  A    between atoms: _463  and  _464
REMARK  197  A    between atoms: _463  and  _466
REMARK  198  A    between atoms: _466  and  _467
REMARK  199  A    between atoms: _469  and  _471
REMARK  200  A    between atoms: _471  and  _472
REMARK  201  A    between atoms: _471  and  _474
REMARK  202  A    between atoms: _474  and  _475
REMARK  203  A    between atoms: _485  and  _487
REMARK  204  A    between atoms: _487  and  _488
REMARK  205  A    between atoms: _490  and  _492
REMARK  206  A    between atoms: _492  and  _493
REMARK  207  A    between atoms: _492  and  _495
REMARK  208  A    between atoms: _495  and  _496
REMARK  209  A    between atoms: _496  and  _497
REMARK  210  A    between atoms: _500  and  _502
REMARK  211  A    between atoms: _502  and  _503
REMARK  212  A    between atoms: _505  and  _507
REMARK  213  A    between atoms: _507  and  _508
REMARK  214  A    between atoms: _507  and  _510
REMARK  215  A    between atoms: _510  and  _511
REMARK  216  A    between atoms: _512  and  _514
REMARK  217  A    between atoms: _514  and  _515
REMARK  218  A    between atoms: _518  and  _520
REMARK  219  A    between atoms: _520  and  _521
REMARK  220  A    between atoms: _520  and  _523
REMARK  221  A    between atoms: _523  and  _524
REMARK  222  A    between atoms: _524  and  _525
REMARK  223  A    between atoms: _530  and  _532
REMARK  224  A    between atoms: _532  and  _533
REMARK  225  A    between atoms: _532  and  _535
REMARK  226  A    between atoms: _535  and  _536
REMARK  227  A    between atoms: _536  and  _537
REMARK  228  A    between atoms: _537  and  _538
REMARK  229  A    between atoms: _548  and  _549
REMARK  230  A    between atoms: _554  and  _556
REMARK  231  A    between atoms: _556  and  _557
REMARK  232  A    between atoms: _559  and  _561
REMARK  233  A    between atoms: _561  and  _562
REMARK  234  A    between atoms: _561  and  _564
REMARK  235  A    between atoms: _567  and  _569
REMARK  236  A    between atoms: _569  and  _570
REMARK  237  A    between atoms: _569  and  _572
REMARK  238  A    between atoms: _572  and  _573
REMARK  239  A    between atoms: _578  and  _579
REMARK  240  A    between atoms: _581  and  _583
REMARK  241  A    between atoms: _583  and  _584
REMARK  242  A    between atoms: _583  and  _586
REMARK  243  A    between atoms: _586  and  _587
REMARK                            x       y       z     vdW  Elec       q    Type
REMARK                         _______ _______ _______ _____ _____    ______ ____
ROOT
ATOM      1  O   HOH     1      37.758 -16.497  16.920  0.00  0.00    +0.000 OA
ENDROOT
TORSDOF 0
REMARK  Name = ../refined-set-2016/4x6o/4x6o_pocket.pdb
REMARK  243 active torsions:
REMARK  status: ('A' for Active; 'I' for Inactive)
REMARK    1  A    between atoms: _1  and  _5
REMARK    2  A    between atoms: _5  and  _6
REMARK    3  A    between atoms: _5  and  _8
REMARK    4  A    between atoms: _8  and  _9
REMARK    5  A    between atoms: _12  and  _14
REMARK    6  A    between atoms: _14  and  _15
REMARK    7  A    between atoms: _14  and  _17
REMARK    8  A    between atoms: _20  and  _22
REMARK    9  A    between atoms: _22  and  _23
REMARK   10  A    between atoms: _22  and  _25
REMARK   11  A    between atoms: _25  and  _26
REMARK   12  A    between atoms: _29  and  _31
REMARK   13  A    between atoms: _31  and  _32
REMARK   14  A    between atoms: _31  and  _34
REMARK   15  A    between atoms: _34  and  _35
REMARK   16  A    between atoms: _38  and  _40
REMARK   17  A    between atoms: _40  and  _41
REMARK   18  A    between atoms: _40  and  _43
REMARK   19  A    between atoms: _43  and  _44
REMARK   20  A    between atoms: _49  and  _51
REMARK   21  A    between atoms: _51  and  _52
REMARK   22  A    between atoms: _51  and  _54
REMARK   23  A    between atoms: _54  and  _55
REMARK   24  A    between atoms: _58  and  _60
REMARK   25  A    between atoms: _60  and  _61
REMARK   26  A    between atoms: _60  and  _63
REMARK   27  A    between atoms: _63  and  _64
REMARK   28  A    between atoms: _67  and  _69
REMARK   29  A    between atoms: _69  and  _70
REMARK   30  A    between atoms: _69  and  _72
REMARK   31  A    between atoms: _72  and  _73
REMARK   32  A    between atoms: _73  and  _74
REMARK   33  A    between atoms: _79  and  _81
REMARK   34  A    between atoms: _81  and  _82
REMARK   35  A    between atoms: _81  and  _84
REMARK   36  A    between atoms: _84  and  _85
REMARK   37  A    between atoms: _85  and  _86
REMARK   38  A    between atoms: _86  and  _87
REMARK   39  A    between atoms: _96  and  _98
REMARK   40  A    between atoms: _98  and  _99
REMARK   41  A    between atoms: _98  and  _101
REMARK   42  A    between atoms: _101  and  _102
REMARK   43  A    between atoms: _107  and  _109
REMARK   44  A    between atoms: _109  and  _110
REMARK   45  A    between atoms: _109  and  _112
REMARK   46  A    between atoms: _112  and  _113
REMARK   47  A    between atoms: _116  and  _118
REMARK   48  A    between atoms: _118  and  _119
REMARK   49  A    between atoms: _118  and  _121
REMARK   50  A    between atoms: _121  and  _122
REMARK   51  A    between atoms: _122  and  _157
REMARK   52  A    between atoms: _123  and  _125
REMARK   53  A    between atoms: _125  and  _126
REMARK   54  A    between atoms: _128  and  _130
REMARK   55  A    between atoms: _130  and  _131
REMARK   56  A    between atoms: _134  and  _136
REMARK   57  A    between atoms: _136  and  _137
REMARK   58  A    between atoms: _140  and  _142
REMARK   59  A    between atoms: _142  and  _143
REMARK   60  A    between atoms: _142  and  _145
REMARK   61  A    between atoms: _145  and  _146
REMARK   62  A    between atoms: _151  and  _153
REMARK   63  A    between atoms: _153  and  _154
REMARK   64  A    between atoms: _153  and  _156
REMARK   65  A    between atoms: _156  and  _157
REMARK   66  A    between atoms: _158  and  _160
REMARK   67  A    between atoms: _160  and  _161
REMARK   68  A    between atoms: _160  and  _163
REMARK   69  A    between atoms: _163  and  _164
REMARK   70  A    between atoms: _170  and  _172
REMARK   71  A    between atoms: _172  and  _173
REMARK   72  A    between atoms: _172  and  _175
REMARK   73  A    between atoms: _175  and  _176
REMARK   74  A    between atoms: _181  and  _182
REMARK   75  A    between atoms: _184  and  _186
REMARK   76  A    between atoms: _186  and  _187
REMARK   77  A    between atoms: _186  and  _189
REMARK   78  A    between atoms: _192  and  _194
REMARK   79  A    between atoms: _194  and  _195
REMARK   80  A    between atoms: _194  and  _197
REMARK   81  A    between atoms: _197  and  _198
REMARK   82  A    between atoms: _198  and  _199
REMARK   83  A    between atoms: _204  and  _206
REMARK   84  A    between atoms: _206  and  _207
REMARK   85  A    between atoms: _210  and  _212
REMARK   86  A    between atoms: _212  and  _213
REMARK   87  A    between atoms: _212  and  _215
REMARK   88  A    between atoms: _215  and  _216
REMARK   89  A    between atoms: _219  and  _221
REMARK   90  A    between atoms: _221  and  _222
REMARK   91  A    between atoms: _221  and  _224
REMARK   92  A    between atoms: _227  and  _229
REMARK   93  A    between atoms: _229  and  _230
REMARK   94  A    between atoms: _229  and  _232
REMARK   95  A    between atoms: _232  and  _233
REMARK   96  A    between atoms: _243  and  _245
REMARK   97  A    between atoms: _245  and  _246
REMARK   98  A    between atoms: _248  and  _250
REMARK   99  A    between atoms: _250  and  _251
REMARK  100  A    between atoms: _250  and  _253
REMARK  101  A    between atoms: _253  and  _254
REMARK  102  A    between atoms: _259  and  _260
REMARK  103  A    between atoms: _262  and  _264
REMARK  104  A    between atoms: _264  and  _265
REMARK  105  A    between atoms: _264  and  _267
REMARK  106  A    between atoms: _267  and  _268
REMARK  107  A    between atoms: _268  and  _269
REMARK  108  A    between atoms: _269  and  _270
REMARK  109  A    between atoms: _270  and  _271
REMARK  110  A    between atoms: _275  and  _277
REMARK  111  A    between atoms: _277  and  _278
REMARK  112  A    between atoms: _277  and  _280
REMARK  113  A    between atoms: _280  and  _281
REMARK  114  A    between atoms: _284  and  _286
REMARK  115  A    between atoms: _286  and  _287
REMARK  116  A    between atoms: _286  and  _289
REMARK  117  A    between atoms: _289  and  _290
REMARK  118  A    between atoms: _293  and  _295
REMARK  119  A    between atoms: _295  and  _296
REMARK  120  A    between atoms: _295  and  _298
REMARK  121  A    between atoms: _298  and  _299
REMARK  122  A    between atoms: _299  and  _300
REMARK  123  A    between atoms: _300  and  _301
REMARK  124  A    between atoms: _301  and  _302
REMARK  125  A    between atoms: _306  and  _308
REMARK  126  A    between atoms: _308  and  _309
REMARK  127  A    between atoms: _308  and  _311
REMARK  128  A    between atoms: _311  and  _312
REMARK  129  A    between atoms: _315  and  _317
REMARK  130  A    between atoms: _317  and  _318
REMARK  131  A    between atoms: _317  and  _320
REMARK  132  A    between atoms: _320  and  _321
REMARK  133  A    between atoms: _321  and  _322
REMARK  134  A    between atoms: _327  and  _329
REMARK  135  A    between atoms: _329  and  _330
REMARK  136  A    between atoms: _329  and  _332
REMARK  137  A    between atoms: _332  and  _333
REMARK  138  A    between atoms: _338  and  _339
REMARK  139  A    between atoms: _341  and  _343
REMARK  140  A    between atoms: _343  and  _344
REMARK  141  A    between atoms: _343  and  _346
REMARK  142  A    between atoms: _346  and  _347
REMARK  143  A    between atoms: _350  and  _352
REMARK  144  A    between atoms: _352  and  _353
REMARK  145  A    between atoms: _352  and  _355
REMARK  146  A    between atoms: _357  and  _359
REMARK  147  A    between atoms: _359  and  _360
REMARK  148  A    between atoms: _363  and  _365
REMARK  149  A    between atoms: _365  and  _366
REMARK  150  A    between atoms: _365  and  _368
REMARK  151  A    between atoms: _368  and  _369
REMARK  152  A    between atoms: _369  and  _370
REMARK  153  A    between atoms: _370  and  _371
REMARK  154  A    between atoms: _371  and  _372
REMARK  155  A    between atoms: _376  and  _378
REMARK  156  A    between atoms: _378  and  _379
REMARK  157  A    between atoms: _378  and  _381
REMARK  158  A    between atoms: _381  and  _382
REMARK  159  A    between atoms: _385  and  _387
REMARK  160  A    between atoms: _387  and  _388
REMARK  161  A    between atoms: _391  and  _393
REMARK  162  A    between atoms: _393  and  _394
REMARK  163  A    between atoms: _393  and  _396
REMARK  164  A    between atoms: _396  and  _397
REMARK  165  A    between atoms: _397  and  _511
REMARK  166  A    between atoms: _398  and  _400
REMARK  167  A    between atoms: _400  and  _401
REMARK  168  A    between atoms: _400  and  _403
REMARK  169  A    between atoms: _403  and  _404
REMARK  170  A    between atoms: _404  and  _405
REMARK  171  A    between atoms: _405  and  _406
REMARK  172  A    between atoms: _406  and  _407
REMARK  173  A    between atoms: _411  and  _413
REMARK  174  A    between atoms: _413  and  _414
REMARK  175  A    between atoms: _416  and  _418
REMARK  176  A    between atoms: _418  and  _419
REMARK  177  A    between atoms: _418  and  _421
REMARK  178  A    between atoms: _421  and  _422
REMARK  179  A    between atoms: _425  and  _427
REMARK  180  A    between atoms: _427  and  _428
REMARK  181  A    between atoms: _427  and  _430
REMARK  182  A    between atoms: _430  and  _431
REMARK  183  A    between atoms: _433  and  _435
REMARK  184  A    between atoms: _435  and  _436
REMARK  185  A    between atoms: _438  and  _440
REMARK  186  A    between atoms: _440  and  _441
REMARK  187  A    between atoms: _443  and  _445
REMARK  188  A    between atoms: _445  and  _446
REMARK  189  A    between atoms: _445  and  _448
REMARK  190  A    between atoms: _448  and  _449
REMARK  191  A    between atoms: _452  and  _454
REMARK  192  A    between atoms: _454  and  _455
REMARK  193  A    between atoms: _454  and  _457
REMARK  194  A    between atoms: _457  and  _458
REMARK  195  A    between atoms: _461  and  _463
REMARK  196  A    between atoms: _463  and  _464
REMARK  197  A    between atoms: _463  and  _466
REMARK  198  A    between atoms: _466  and  _467
REMARK  199  A    between atoms: _469  and  _471
REMARK  200  A    between atoms: _471  and  _472
REMARK  201  A    between atoms: _471  and  _474
REMARK  202  A    between atoms: _474  and  _475
REMARK  203  A    between atoms: _485  and  _487
REMARK  204  A    between atoms: _487  and  _488
REMARK  205  A    between atoms: _490  and  _492
REMARK  206  A    between atoms: _492  and  _493
REMARK  207  A    between atoms: _492  and  _495
REMARK  208  A    between atoms: _495  and  _496
REMARK  209  A    between atoms: _496  and  _497
REMARK  210  A    between atoms: _500  and  _502
REMARK  211  A    between atoms: _502  and  _503
REMARK  212  A    between atoms: _505  and  _507
REMARK  213  A    between atoms: _507  and  _508
REMARK  214  A    between atoms: _507  and  _510
REMARK  215  A    between atoms: _510  and  _511
REMARK  216  A    between atoms: _512  and  _514
REMARK  217  A    between atoms: _514  and  _515
REMARK  218  A    between atoms: _518  and  _520
REMARK  219  A    between atoms: _520  and  _521
REMARK  220  A    between atoms: _520  and  _523
REMARK  221  A    between atoms: _523  and  _524
REMARK  222  A    between atoms: _524  and  _525
REMARK  223  A    between atoms: _530  and  _532
REMARK  224  A    between atoms: _532  and  _533
REMARK  225  A    between atoms: _532  and  _535
REMARK  226  A    between atoms: _535  and  _536
REMARK  227  A    between atoms: _536  and  _537
REMARK  228  A    between atoms: _537  and  _538
REMARK  229  A    between atoms: _548  and  _549
REMARK  230  A    between atoms: _554  and  _556
REMARK  231  A    between atoms: _556  and  _557
REMARK  232  A    between atoms: _559  and  _561
REMARK  233  A    between atoms: _561  and  _562
REMARK  234  A    between atoms: _561  and  _564
REMARK  235  A    between atoms: _567  and  _569
REMARK  236  A    between atoms: _569  and  _570
REMARK  237  A    between atoms: _569  and  _572
REMARK  238  A    between atoms: _572  and  _573
REMARK  239  A    between atoms: _578  and  _579
REMARK  240  A    between atoms: _581  and  _583
REMARK  241  A    between atoms: _583  and  _584
REMARK  242  A    between atoms: _583  and  _586
REMARK  243  A    between atoms: _586  and  _587
REMARK                            x       y       z     vdW  Elec       q    Type
REMARK                         _______ _______ _______ _____ _____    ______ ____
ROOT
ATOM      1  O   HOH     1      43.707 -17.096  21.358  0.00  0.00    +0.000 OA
ENDROOT
TORSDOF 0
REMARK  Name = ../refined-set-2016/4x6o/4x6o_pocket.pdb
REMARK  243 active torsions:
REMARK  status: ('A' for Active; 'I' for Inactive)
REMARK    1  A    between atoms: _1  and  _5
REMARK    2  A    between atoms: _5  and  _6
REMARK    3  A    between atoms: _5  and  _8
REMARK    4  A    between atoms: _8  and  _9
REMARK    5  A    between atoms: _12  and  _14
REMARK    6  A    between atoms: _14  and  _15
REMARK    7  A    between atoms: _14  and  _17
REMARK    8  A    between atoms: _20  and  _22
REMARK    9  A    between atoms: _22  and  _23
REMARK   10  A    between atoms: _22  and  _25
REMARK   11  A    between atoms: _25  and  _26
REMARK   12  A    between atoms: _29  and  _31
REMARK   13  A    between atoms: _31  and  _32
REMARK   14  A    between atoms: _31  and  _34
REMARK   15  A    between atoms: _34  and  _35
REMARK   16  A    between atoms: _38  and  _40
REMARK   17  A    between atoms: _40  and  _41
REMARK   18  A    between atoms: _40  and  _43
REMARK   19  A    between atoms: _43  and  _44
REMARK   20  A    between atoms: _49  and  _51
REMARK   21  A    between atoms: _51  and  _52
REMARK   22  A    between atoms: _51  and  _54
REMARK   23  A    between atoms: _54  and  _55
REMARK   24  A    between atoms: _58  and  _60
REMARK   25  A    between atoms: _60  and  _61
REMARK   26  A    between atoms: _60  and  _63
REMARK   27  A    between atoms: _63  and  _64
REMARK   28  A    between atoms: _67  and  _69
REMARK   29  A    between atoms: _69  and  _70
REMARK   30  A    between atoms: _69  and  _72
REMARK   31  A    between atoms: _72  and  _73
REMARK   32  A    between atoms: _73  and  _74
REMARK   33  A    between atoms: _79  and  _81
REMARK   34  A    between atoms: _81  and  _82
REMARK   35  A    between atoms: _81  and  _84
REMARK   36  A    between atoms: _84  and  _85
REMARK   37  A    between atoms: _85  and  _86
REMARK   38  A    between atoms: _86  and  _87
REMARK   39  A    between atoms: _96  and  _98
REMARK   40  A    between atoms: _98  and  _99
REMARK   41  A    between atoms: _98  and  _101
REMARK   42  A    between atoms: _101  and  _102
REMARK   43  A    between atoms: _107  and  _109
REMARK   44  A    between atoms: _109  and  _110
REMARK   45  A    between atoms: _109  and  _112
REMARK   46  A    between atoms: _112  and  _113
REMARK   47  A    between atoms: _116  and  _118
REMARK   48  A    between atoms: _118  and  _119
REMARK   49  A    between atoms: _118  and  _121
REMARK   50  A    between atoms: _121  and  _122
REMARK   51  A    between atoms: _122  and  _157
REMARK   52  A    between atoms: _123  and  _125
REMARK   53  A    between atoms: _125  and  _126
REMARK   54  A    between atoms: _128  and  _130
REMARK   55  A    between atoms: _130  and  _131
REMARK   56  A    between atoms: _134  and  _136
REMARK   57  A    between atoms: _136  and  _137
REMARK   58  A    between atoms: _140  and  _142
REMARK   59  A    between atoms: _142  and  _143
REMARK   60  A    between atoms: _142  and  _145
REMARK   61  A    between atoms: _145  and  _146
REMARK   62  A    between atoms: _151  and  _153
REMARK   63  A    between atoms: _153  and  _154
REMARK   64  A    between atoms: _153  and  _156
REMARK   65  A    between atoms: _156  and  _157
REMARK   66  A    between atoms: _158  and  _160
REMARK   67  A    between atoms: _160  and  _161
REMARK   68  A    between atoms: _160  and  _163
REMARK   69  A    between atoms: _163  and  _164
REMARK   70  A    between atoms: _170  and  _172
REMARK   71  A    between atoms: _172  and  _173
REMARK   72  A    between atoms: _172  and  _175
REMARK   73  A    between atoms: _175  and  _176
REMARK   74  A    between atoms: _181  and  _182
REMARK   75  A    between atoms: _184  and  _186
REMARK   76  A    between atoms: _186  and  _187
REMARK   77  A    between atoms: _186  and  _189
REMARK   78  A    between atoms: _192  and  _194
REMARK   79  A    between atoms: _194  and  _195
REMARK   80  A    between atoms: _194  and  _197
REMARK   81  A    between atoms: _197  and  _198
REMARK   82  A    between atoms: _198  and  _199
REMARK   83  A    between atoms: _204  and  _206
REMARK   84  A    between atoms: _206  and  _207
REMARK   85  A    between atoms: _210  and  _212
REMARK   86  A    between atoms: _212  and  _213
REMARK   87  A    between atoms: _212  and  _215
REMARK   88  A    between atoms: _215  and  _216
REMARK   89  A    between atoms: _219  and  _221
REMARK   90  A    between atoms: _221  and  _222
REMARK   91  A    between atoms: _221  and  _224
REMARK   92  A    between atoms: _227  and  _229
REMARK   93  A    between atoms: _229  and  _230
REMARK   94  A    between atoms: _229  and  _232
REMARK   95  A    between atoms: _232  and  _233
REMARK   96  A    between atoms: _243  and  _245
REMARK   97  A    between atoms: _245  and  _246
REMARK   98  A    between atoms: _248  and  _250
REMARK   99  A    between atoms: _250  and  _251
REMARK  100  A    between atoms: _250  and  _253
REMARK  101  A    between atoms: _253  and  _254
REMARK  102  A    between atoms: _259  and  _260
REMARK  103  A    between atoms: _262  and  _264
REMARK  104  A    between atoms: _264  and  _265
REMARK  105  A    between atoms: _264  and  _267
REMARK  106  A    between atoms: _267  and  _268
REMARK  107  A    between atoms: _268  and  _269
REMARK  108  A    between atoms: _269  and  _270
REMARK  109  A    between atoms: _270  and  _271
REMARK  110  A    between atoms: _275  and  _277
REMARK  111  A    between atoms: _277  and  _278
REMARK  112  A    between atoms: _277  and  _280
REMARK  113  A    between atoms: _280  and  _281
REMARK  114  A    between atoms: _284  and  _286
REMARK  115  A    between atoms: _286  and  _287
REMARK  116  A    between atoms: _286  and  _289
REMARK  117  A    between atoms: _289  and  _290
REMARK  118  A    between atoms: _293  and  _295
REMARK  119  A    between atoms: _295  and  _296
REMARK  120  A    between atoms: _295  and  _298
REMARK  121  A    between atoms: _298  and  _299
REMARK  122  A    between atoms: _299  and  _300
REMARK  123  A    between atoms: _300  and  _301
REMARK  124  A    between atoms: _301  and  _302
REMARK  125  A    between atoms: _306  and  _308
REMARK  126  A    between atoms: _308  and  _309
REMARK  127  A    between atoms: _308  and  _311
REMARK  128  A    between atoms: _311  and  _312
REMARK  129  A    between atoms: _315  and  _317
REMARK  130  A    between atoms: _317  and  _318
REMARK  131  A    between atoms: _317  and  _320
REMARK  132  A    between atoms: _320  and  _321
REMARK  133  A    between atoms: _321  and  _322
REMARK  134  A    between atoms: _327  and  _329
REMARK  135  A    between atoms: _329  and  _330
REMARK  136  A    between atoms: _329  and  _332
REMARK  137  A    between atoms: _332  and  _333
REMARK  138  A    between atoms: _338  and  _339
REMARK  139  A    between atoms: _341  and  _343
REMARK  140  A    between atoms: _343  and  _344
REMARK  141  A    between atoms: _343  and  _346
REMARK  142  A    between atoms: _346  and  _347
REMARK  143  A    between atoms: _350  and  _352
REMARK  144  A    between atoms: _352  and  _353
REMARK  145  A    between atoms: _352  and  _355
REMARK  146  A    between atoms: _357  and  _359
REMARK  147  A    between atoms: _359  and  _360
REMARK  148  A    between atoms: _363  and  _365
REMARK  149  A    between atoms: _365  and  _366
REMARK  150  A    between atoms: _365  and  _368
REMARK  151  A    between atoms: _368  and  _369
REMARK  152  A    between atoms: _369  and  _370
REMARK  153  A    between atoms: _370  and  _371
REMARK  154  A    between atoms: _371  and  _372
REMARK  155  A    between atoms: _376  and  _378
REMARK  156  A    between atoms: _378  and  _379
REMARK  157  A    between atoms: _378  and  _381
REMARK  158  A    between atoms: _381  and  _382
REMARK  159  A    between atoms: _385  and  _387
REMARK  160  A    between atoms: _387  and  _388
REMARK  161  A    between atoms: _391  and  _393
REMARK  162  A    between atoms: _393  and  _394
REMARK  163  A    between atoms: _393  and  _396
REMARK  164  A    between atoms: _396  and  _397
REMARK  165  A    between atoms: _397  and  _511
REMARK  166  A    between atoms: _398  and  _400
REMARK  167  A    between atoms: _400  and  _401
REMARK  168  A    between atoms: _400  and  _403
REMARK  169  A    between atoms: _403  and  _404
REMARK  170  A    between atoms: _404  and  _405
REMARK  171  A    between atoms: _405  and  _406
REMARK  172  A    between atoms: _406  and  _407
REMARK  173  A    between atoms: _411  and  _413
REMARK  174  A    between atoms: _413  and  _414
REMARK  175  A    between atoms: _416  and  _418
REMARK  176  A    between atoms: _418  and  _419
REMARK  177  A    between atoms: _418  and  _421
REMARK  178  A    between atoms: _421  and  _422
REMARK  179  A    between atoms: _425  and  _427
REMARK  180  A    between atoms: _427  and  _428
REMARK  181  A    between atoms: _427  and  _430
REMARK  182  A    between atoms: _430  and  _431
REMARK  183  A    between atoms: _433  and  _435
REMARK  184  A    between atoms: _435  and  _436
REMARK  185  A    between atoms: _438  and  _440
REMARK  186  A    between atoms: _440  and  _441
REMARK  187  A    between atoms: _443  and  _445
REMARK  188  A    between atoms: _445  and  _446
REMARK  189  A    between atoms: _445  and  _448
REMARK  190  A    between atoms: _448  and  _449
REMARK  191  A    between atoms: _452  and  _454
REMARK  192  A    between atoms: _454  and  _455
REMARK  193  A    between atoms: _454  and  _457
REMARK  194  A    between atoms: _457  and  _458
REMARK  195  A    between atoms: _461  and  _463
REMARK  196  A    between atoms: _463  and  _464
REMARK  197  A    between atoms: _463  and  _466
REMARK  198  A    between atoms: _466  and  _467
REMARK  199  A    between atoms: _469  and  _471
REMARK  200  A    between atoms: _471  and  _472
REMARK  201  A    between atoms: _471  and  _474
REMARK  202  A    between atoms: _474  and  _475
REMARK  203  A    between atoms: _485  and  _487
REMARK  204  A    between atoms: _487  and  _488
REMARK  205  A    between atoms: _490  and  _492
REMARK  206  A    between atoms: _492  and  _493
REMARK  207  A    between atoms: _492  and  _495
REMARK  208  A    between atoms: _495  and  _496
REMARK  209  A    between atoms: _496  and  _497
REMARK  210  A    between atoms: _500  and  _502
REMARK  211  A    between atoms: _502  and  _503
REMARK  212  A    between atoms: _505  and  _507
REMARK  213  A    between atoms: _507  and  _508
REMARK  214  A    between atoms: _507  and  _510
REMARK  215  A    between atoms: _510  and  _511
REMARK  216  A    between atoms: _512  and  _514
REMARK  217  A    between atoms: _514  and  _515
REMARK  218  A    between atoms: _518  and  _520
REMARK  219  A    between atoms: _520  and  _521
REMARK  220  A    between atoms: _520  and  _523
REMARK  221  A    between atoms: _523  and  _524
REMARK  222  A    between atoms: _524  and  _525
REMARK  223  A    between atoms: _530  and  _532
REMARK  224  A    between atoms: _532  and  _533
REMARK  225  A    between atoms: _532  and  _535
REMARK  226  A    between atoms: _535  and  _536
REMARK  227  A    between atoms: _536  and  _537
REMARK  228  A    between atoms: _537  and  _538
REMARK  229  A    between atoms: _548  and  _549
REMARK  230  A    between atoms: _554  and  _556
REMARK  231  A    between atoms: _556  and  _557
REMARK  232  A    between atoms: _559  and  _561
REMARK  233  A    between atoms: _561  and  _562
REMARK  234  A    between atoms: _561  and  _564
REMARK  235  A    between atoms: _567  and  _569
REMARK  236  A    between atoms: _569  and  _570
REMARK  237  A    between atoms: _569  and  _572
REMARK  238  A    between atoms: _572  and  _573
REMARK  239  A    between atoms: _578  and  _579
REMARK  240  A    between atoms: _581  and  _583
REMARK  241  A    between atoms: _583  and  _584
REMARK  242  A    between atoms: _583  and  _586
REMARK  243  A    between atoms: _586  and  _587
REMARK                            x       y       z     vdW  Elec       q    Type
REMARK                         _______ _______ _______ _____ _____    ______ ____
ROOT
ATOM      1  O   HOH     1      41.187 -22.844  23.652  0.00  0.00    +0.000 OA
ENDROOT
TORSDOF 0
REMARK  Name = ../refined-set-2016/4x6o/4x6o_pocket.pdb
REMARK  243 active torsions:
REMARK  status: ('A' for Active; 'I' for Inactive)
REMARK    1  A    between atoms: _1  and  _5
REMARK    2  A    between atoms: _5  and  _6
REMARK    3  A    between atoms: _5  and  _8
REMARK    4  A    between atoms: _8  and  _9
REMARK    5  A    between atoms: _12  and  _14
REMARK    6  A    between atoms: _14  and  _15
REMARK    7  A    between atoms: _14  and  _17
REMARK    8  A    between atoms: _20  and  _22
REMARK    9  A    between atoms: _22  and  _23
REMARK   10  A    between atoms: _22  and  _25
REMARK   11  A    between atoms: _25  and  _26
REMARK   12  A    between atoms: _29  and  _31
REMARK   13  A    between atoms: _31  and  _32
REMARK   14  A    between atoms: _31  and  _34
REMARK   15  A    between atoms: _34  and  _35
REMARK   16  A    between atoms: _38  and  _40
REMARK   17  A    between atoms: _40  and  _41
REMARK   18  A    between atoms: _40  and  _43
REMARK   19  A    between atoms: _43  and  _44
REMARK   20  A    between atoms: _49  and  _51
REMARK   21  A    between atoms: _51  and  _52
REMARK   22  A    between atoms: _51  and  _54
REMARK   23  A    between atoms: _54  and  _55
REMARK   24  A    between atoms: _58  and  _60
REMARK   25  A    between atoms: _60  and  _61
REMARK   26  A    between atoms: _60  and  _63
REMARK   27  A    between atoms: _63  and  _64
REMARK   28  A    between atoms: _67  and  _69
REMARK   29  A    between atoms: _69  and  _70
REMARK   30  A    between atoms: _69  and  _72
REMARK   31  A    between atoms: _72  and  _73
REMARK   32  A    between atoms: _73  and  _74
REMARK   33  A    between atoms: _79  and  _81
REMARK   34  A    between atoms: _81  and  _82
REMARK   35  A    between atoms: _81  and  _84
REMARK   36  A    between atoms: _84  and  _85
REMARK   37  A    between atoms: _85  and  _86
REMARK   38  A    between atoms: _86  and  _87
REMARK   39  A    between atoms: _96  and  _98
REMARK   40  A    between atoms: _98  and  _99
REMARK   41  A    between atoms: _98  and  _101
REMARK   42  A    between atoms: _101  and  _102
REMARK   43  A    between atoms: _107  and  _109
REMARK   44  A    between atoms: _109  and  _110
REMARK   45  A    between atoms: _109  and  _112
REMARK   46  A    between atoms: _112  and  _113
REMARK   47  A    between atoms: _116  and  _118
REMARK   48  A    between atoms: _118  and  _119
REMARK   49  A    between atoms: _118  and  _121
REMARK   50  A    between atoms: _121  and  _122
REMARK   51  A    between atoms: _122  and  _157
REMARK   52  A    between atoms: _123  and  _125
REMARK   53  A    between atoms: _125  and  _126
REMARK   54  A    between atoms: _128  and  _130
REMARK   55  A    between atoms: _130  and  _131
REMARK   56  A    between atoms: _134  and  _136
REMARK   57  A    between atoms: _136  and  _137
REMARK   58  A    between atoms: _140  and  _142
REMARK   59  A    between atoms: _142  and  _143
REMARK   60  A    between atoms: _142  and  _145
REMARK   61  A    between atoms: _145  and  _146
REMARK   62  A    between atoms: _151  and  _153
REMARK   63  A    between atoms: _153  and  _154
REMARK   64  A    between atoms: _153  and  _156
REMARK   65  A    between atoms: _156  and  _157
REMARK   66  A    between atoms: _158  and  _160
REMARK   67  A    between atoms: _160  and  _161
REMARK   68  A    between atoms: _160  and  _163
REMARK   69  A    between atoms: _163  and  _164
REMARK   70  A    between atoms: _170  and  _172
REMARK   71  A    between atoms: _172  and  _173
REMARK   72  A    between atoms: _172  and  _175
REMARK   73  A    between atoms: _175  and  _176
REMARK   74  A    between atoms: _181  and  _182
REMARK   75  A    between atoms: _184  and  _186
REMARK   76  A    between atoms: _186  and  _187
REMARK   77  A    between atoms: _186  and  _189
REMARK   78  A    between atoms: _192  and  _194
REMARK   79  A    between atoms: _194  and  _195
REMARK   80  A    between atoms: _194  and  _197
REMARK   81  A    between atoms: _197  and  _198
REMARK   82  A    between atoms: _198  and  _199
REMARK   83  A    between atoms: _204  and  _206
REMARK   84  A    between atoms: _206  and  _207
REMARK   85  A    between atoms: _210  and  _212
REMARK   86  A    between atoms: _212  and  _213
REMARK   87  A    between atoms: _212  and  _215
REMARK   88  A    between atoms: _215  and  _216
REMARK   89  A    between atoms: _219  and  _221
REMARK   90  A    between atoms: _221  and  _222
REMARK   91  A    between atoms: _221  and  _224
REMARK   92  A    between atoms: _227  and  _229
REMARK   93  A    between atoms: _229  and  _230
REMARK   94  A    between atoms: _229  and  _232
REMARK   95  A    between atoms: _232  and  _233
REMARK   96  A    between atoms: _243  and  _245
REMARK   97  A    between atoms: _245  and  _246
REMARK   98  A    between atoms: _248  and  _250
REMARK   99  A    between atoms: _250  and  _251
REMARK  100  A    between atoms: _250  and  _253
REMARK  101  A    between atoms: _253  and  _254
REMARK  102  A    between atoms: _259  and  _260
REMARK  103  A    between atoms: _262  and  _264
REMARK  104  A    between atoms: _264  and  _265
REMARK  105  A    between atoms: _264  and  _267
REMARK  106  A    between atoms: _267  and  _268
REMARK  107  A    between atoms: _268  and  _269
REMARK  108  A    between atoms: _269  and  _270
REMARK  109  A    between atoms: _270  and  _271
REMARK  110  A    between atoms: _275  and  _277
REMARK  111  A    between atoms: _277  and  _278
REMARK  112  A    between atoms: _277  and  _280
REMARK  113  A    between atoms: _280  and  _281
REMARK  114  A    between atoms: _284  and  _286
REMARK  115  A    between atoms: _286  and  _287
REMARK  116  A    between atoms: _286  and  _289
REMARK  117  A    between atoms: _289  and  _290
REMARK  118  A    between atoms: _293  and  _295
REMARK  119  A    between atoms: _295  and  _296
REMARK  120  A    between atoms: _295  and  _298
REMARK  121  A    between atoms: _298  and  _299
REMARK  122  A    between atoms: _299  and  _300
REMARK  123  A    between atoms: _300  and  _301
REMARK  124  A    between atoms: _301  and  _302
REMARK  125  A    between atoms: _306  and  _308
REMARK  126  A    between atoms: _308  and  _309
REMARK  127  A    between atoms: _308  and  _311
REMARK  128  A    between atoms: _311  and  _312
REMARK  129  A    between atoms: _315  and  _317
REMARK  130  A    between atoms: _317  and  _318
REMARK  131  A    between atoms: _317  and  _320
REMARK  132  A    between atoms: _320  and  _321
REMARK  133  A    between atoms: _321  and  _322
REMARK  134  A    between atoms: _327  and  _329
REMARK  135  A    between atoms: _329  and  _330
REMARK  136  A    between atoms: _329  and  _332
REMARK  137  A    between atoms: _332  and  _333
REMARK  138  A    between atoms: _338  and  _339
REMARK  139  A    between atoms: _341  and  _343
REMARK  140  A    between atoms: _343  and  _344
REMARK  141  A    between atoms: _343  and  _346
REMARK  142  A    between atoms: _346  and  _347
REMARK  143  A    between atoms: _350  and  _352
REMARK  144  A    between atoms: _352  and  _353
REMARK  145  A    between atoms: _352  and  _355
REMARK  146  A    between atoms: _357  and  _359
REMARK  147  A    between atoms: _359  and  _360
REMARK  148  A    between atoms: _363  and  _365
REMARK  149  A    between atoms: _365  and  _366
REMARK  150  A    between atoms: _365  and  _368
REMARK  151  A    between atoms: _368  and  _369
REMARK  152  A    between atoms: _369  and  _370
REMARK  153  A    between atoms: _370  and  _371
REMARK  154  A    between atoms: _371  and  _372
REMARK  155  A    between atoms: _376  and  _378
REMARK  156  A    between atoms: _378  and  _379
REMARK  157  A    between atoms: _378  and  _381
REMARK  158  A    between atoms: _381  and  _382
REMARK  159  A    between atoms: _385  and  _387
REMARK  160  A    between atoms: _387  and  _388
REMARK  161  A    between atoms: _391  and  _393
REMARK  162  A    between atoms: _393  and  _394
REMARK  163  A    between atoms: _393  and  _396
REMARK  164  A    between atoms: _396  and  _397
REMARK  165  A    between atoms: _397  and  _511
REMARK  166  A    between atoms: _398  and  _400
REMARK  167  A    between atoms: _400  and  _401
REMARK  168  A    between atoms: _400  and  _403
REMARK  169  A    between atoms: _403  and  _404
REMARK  170  A    between atoms: _404  and  _405
REMARK  171  A    between atoms: _405  and  _406
REMARK  172  A    between atoms: _406  and  _407
REMARK  173  A    between atoms: _411  and  _413
REMARK  174  A    between atoms: _413  and  _414
REMARK  175  A    between atoms: _416  and  _418
REMARK  176  A    between atoms: _418  and  _419
REMARK  177  A    between atoms: _418  and  _421
REMARK  178  A    between atoms: _421  and  _422
REMARK  179  A    between atoms: _425  and  _427
REMARK  180  A    between atoms: _427  and  _428
REMARK  181  A    between atoms: _427  and  _430
REMARK  182  A    between atoms: _430  and  _431
REMARK  183  A    between atoms: _433  and  _435
REMARK  184  A    between atoms: _435  and  _436
REMARK  185  A    between atoms: _438  and  _440
REMARK  186  A    between atoms: _440  and  _441
REMARK  187  A    between atoms: _443  and  _445
REMARK  188  A    between atoms: _445  and  _446
REMARK  189  A    between atoms: _445  and  _448
REMARK  190  A    between atoms: _448  and  _449
REMARK  191  A    between atoms: _452  and  _454
REMARK  192  A    between atoms: _454  and  _455
REMARK  193  A    between atoms: _454  and  _457
REMARK  194  A    between atoms: _457  and  _458
REMARK  195  A    between atoms: _461  and  _463
REMARK  196  A    between atoms: _463  and  _464
REMARK  197  A    between atoms: _463  and  _466
REMARK  198  A    between atoms: _466  and  _467
REMARK  199  A    between atoms: _469  and  _471
REMARK  200  A    between atoms: _471  and  _472
REMARK  201  A    between atoms: _471  and  _474
REMARK  202  A    between atoms: _474  and  _475
REMARK  203  A    between atoms: _485  and  _487
REMARK  204  A    between atoms: _487  and  _488
REMARK  205  A    between atoms: _490  and  _492
REMARK  206  A    between atoms: _492  and  _493
REMARK  207  A    between atoms: _492  and  _495
REMARK  208  A    between atoms: _495  and  _496
REMARK  209  A    between atoms: _496  and  _497
REMARK  210  A    between atoms: _500  and  _502
REMARK  211  A    between atoms: _502  and  _503
REMARK  212  A    between atoms: _505  and  _507
REMARK  213  A    between atoms: _507  and  _508
REMARK  214  A    between atoms: _507  and  _510
REMARK  215  A    between atoms: _510  and  _511
REMARK  216  A    between atoms: _512  and  _514
REMARK  217  A    between atoms: _514  and  _515
REMARK  218  A    between atoms: _518  and  _520
REMARK  219  A    between atoms: _520  and  _521
REMARK  220  A    between atoms: _520  and  _523
REMARK  221  A    between atoms: _523  and  _524
REMARK  222  A    between atoms: _524  and  _525
REMARK  223  A    between atoms: _530  and  _532
REMARK  224  A    between atoms: _532  and  _533
REMARK  225  A    between atoms: _532  and  _535
REMARK  226  A    between atoms: _535  and  _536
REMARK  227  A    between atoms: _536  and  _537
REMARK  228  A    between atoms: _537  and  _538
REMARK  229  A    between atoms: _548  and  _549
REMARK  230  A    between atoms: _554  and  _556
REMARK  231  A    between atoms: _556  and  _557
REMARK  232  A    between atoms: _559  and  _561
REMARK  233  A    between atoms: _561  and  _562
REMARK  234  A    between atoms: _561  and  _564
REMARK  235  A    between atoms: _567  and  _569
REMARK  236  A    between atoms: _569  and  _570
REMARK  237  A    between atoms: _569  and  _572
REMARK  238  A    between atoms: _572  and  _573
REMARK  239  A    between atoms: _578  and  _579
REMARK  240  A    between atoms: _581  and  _583
REMARK  241  A    between atoms: _583  and  _584
REMARK  242  A    between atoms: _583  and  _586
REMARK  243  A    between atoms: _586  and  _587
REMARK                            x       y       z     vdW  Elec       q    Type
REMARK                         _______ _______ _______ _____ _____    ______ ____
ROOT
ATOM      1  O   HOH     1      42.055 -28.157  27.312  0.00  0.00    +0.000 OA
ENDROOT
TORSDOF 0
REMARK  Name = ../refined-set-2016/4x6o/4x6o_pocket.pdb
REMARK  243 active torsions:
REMARK  status: ('A' for Active; 'I' for Inactive)
REMARK    1  A    between atoms: _1  and  _5
REMARK    2  A    between atoms: _5  and  _6
REMARK    3  A    between atoms: _5  and  _8
REMARK    4  A    between atoms: _8  and  _9
REMARK    5  A    between atoms: _12  and  _14
REMARK    6  A    between atoms: _14  and  _15
REMARK    7  A    between atoms: _14  and  _17
REMARK    8  A    between atoms: _20  and  _22
REMARK    9  A    between atoms: _22  and  _23
REMARK   10  A    between atoms: _22  and  _25
REMARK   11  A    between atoms: _25  and  _26
REMARK   12  A    between atoms: _29  and  _31
REMARK   13  A    between atoms: _31  and  _32
REMARK   14  A    between atoms: _31  and  _34
REMARK   15  A    between atoms: _34  and  _35
REMARK   16  A    between atoms: _38  and  _40
REMARK   17  A    between atoms: _40  and  _41
REMARK   18  A    between atoms: _40  and  _43
REMARK   19  A    between atoms: _43  and  _44
REMARK   20  A    between atoms: _49  and  _51
REMARK   21  A    between atoms: _51  and  _52
REMARK   22  A    between atoms: _51  and  _54
REMARK   23  A    between atoms: _54  and  _55
REMARK   24  A    between atoms: _58  and  _60
REMARK   25  A    between atoms: _60  and  _61
REMARK   26  A    between atoms: _60  and  _63
REMARK   27  A    between atoms: _63  and  _64
REMARK   28  A    between atoms: _67  and  _69
REMARK   29  A    between atoms: _69  and  _70
REMARK   30  A    between atoms: _69  and  _72
REMARK   31  A    between atoms: _72  and  _73
REMARK   32  A    between atoms: _73  and  _74
REMARK   33  A    between atoms: _79  and  _81
REMARK   34  A    between atoms: _81  and  _82
REMARK   35  A    between atoms: _81  and  _84
REMARK   36  A    between atoms: _84  and  _85
REMARK   37  A    between atoms: _85  and  _86
REMARK   38  A    between atoms: _86  and  _87
REMARK   39  A    between atoms: _96  and  _98
REMARK   40  A    between atoms: _98  and  _99
REMARK   41  A    between atoms: _98  and  _101
REMARK   42  A    between atoms: _101  and  _102
REMARK   43  A    between atoms: _107  and  _109
REMARK   44  A    between atoms: _109  and  _110
REMARK   45  A    between atoms: _109  and  _112
REMARK   46  A    between atoms: _112  and  _113
REMARK   47  A    between atoms: _116  and  _118
REMARK   48  A    between atoms: _118  and  _119
REMARK   49  A    between atoms: _118  and  _121
REMARK   50  A    between atoms: _121  and  _122
REMARK   51  A    between atoms: _122  and  _157
REMARK   52  A    between atoms: _123  and  _125
REMARK   53  A    between atoms: _125  and  _126
REMARK   54  A    between atoms: _128  and  _130
REMARK   55  A    between atoms: _130  and  _131
REMARK   56  A    between atoms: _134  and  _136
REMARK   57  A    between atoms: _136  and  _137
REMARK   58  A    between atoms: _140  and  _142
REMARK   59  A    between atoms: _142  and  _143
REMARK   60  A    between atoms: _142  and  _145
REMARK   61  A    between atoms: _145  and  _146
REMARK   62  A    between atoms: _151  and  _153
REMARK   63  A    between atoms: _153  and  _154
REMARK   64  A    between atoms: _153  and  _156
REMARK   65  A    between atoms: _156  and  _157
REMARK   66  A    between atoms: _158  and  _160
REMARK   67  A    between atoms: _160  and  _161
REMARK   68  A    between atoms: _160  and  _163
REMARK   69  A    between atoms: _163  and  _164
REMARK   70  A    between atoms: _170  and  _172
REMARK   71  A    between atoms: _172  and  _173
REMARK   72  A    between atoms: _172  and  _175
REMARK   73  A    between atoms: _175  and  _176
REMARK   74  A    between atoms: _181  and  _182
REMARK   75  A    between atoms: _184  and  _186
REMARK   76  A    between atoms: _186  and  _187
REMARK   77  A    between atoms: _186  and  _189
REMARK   78  A    between atoms: _192  and  _194
REMARK   79  A    between atoms: _194  and  _195
REMARK   80  A    between atoms: _194  and  _197
REMARK   81  A    between atoms: _197  and  _198
REMARK   82  A    between atoms: _198  and  _199
REMARK   83  A    between atoms: _204  and  _206
REMARK   84  A    between atoms: _206  and  _207
REMARK   85  A    between atoms: _210  and  _212
REMARK   86  A    between atoms: _212  and  _213
REMARK   87  A    between atoms: _212  and  _215
REMARK   88  A    between atoms: _215  and  _216
REMARK   89  A    between atoms: _219  and  _221
REMARK   90  A    between atoms: _221  and  _222
REMARK   91  A    between atoms: _221  and  _224
REMARK   92  A    between atoms: _227  and  _229
REMARK   93  A    between atoms: _229  and  _230
REMARK   94  A    between atoms: _229  and  _232
REMARK   95  A    between atoms: _232  and  _233
REMARK   96  A    between atoms: _243  and  _245
REMARK   97  A    between atoms: _245  and  _246
REMARK   98  A    between atoms: _248  and  _250
REMARK   99  A    between atoms: _250  and  _251
REMARK  100  A    between atoms: _250  and  _253
REMARK  101  A    between atoms: _253  and  _254
REMARK  102  A    between atoms: _259  and  _260
REMARK  103  A    between atoms: _262  and  _264
REMARK  104  A    between atoms: _264  and  _265
REMARK  105  A    between atoms: _264  and  _267
REMARK  106  A    between atoms: _267  and  _268
REMARK  107  A    between atoms: _268  and  _269
REMARK  108  A    between atoms: _269  and  _270
REMARK  109  A    between atoms: _270  and  _271
REMARK  110  A    between atoms: _275  and  _277
REMARK  111  A    between atoms: _277  and  _278
REMARK  112  A    between atoms: _277  and  _280
REMARK  113  A    between atoms: _280  and  _281
REMARK  114  A    between atoms: _284  and  _286
REMARK  115  A    between atoms: _286  and  _287
REMARK  116  A    between atoms: _286  and  _289
REMARK  117  A    between atoms: _289  and  _290
REMARK  118  A    between atoms: _293  and  _295
REMARK  119  A    between atoms: _295  and  _296
REMARK  120  A    between atoms: _295  and  _298
REMARK  121  A    between atoms: _298  and  _299
REMARK  122  A    between atoms: _299  and  _300
REMARK  123  A    between atoms: _300  and  _301
REMARK  124  A    between atoms: _301  and  _302
REMARK  125  A    between atoms: _306  and  _308
REMARK  126  A    between atoms: _308  and  _309
REMARK  127  A    between atoms: _308  and  _311
REMARK  128  A    between atoms: _311  and  _312
REMARK  129  A    between atoms: _315  and  _317
REMARK  130  A    between atoms: _317  and  _318
REMARK  131  A    between atoms: _317  and  _320
REMARK  132  A    between atoms: _320  and  _321
REMARK  133  A    between atoms: _321  and  _322
REMARK  134  A    between atoms: _327  and  _329
REMARK  135  A    between atoms: _329  and  _330
REMARK  136  A    between atoms: _329  and  _332
REMARK  137  A    between atoms: _332  and  _333
REMARK  138  A    between atoms: _338  and  _339
REMARK  139  A    between atoms: _341  and  _343
REMARK  140  A    between atoms: _343  and  _344
REMARK  141  A    between atoms: _343  and  _346
REMARK  142  A    between atoms: _346  and  _347
REMARK  143  A    between atoms: _350  and  _352
REMARK  144  A    between atoms: _352  and  _353
REMARK  145  A    between atoms: _352  and  _355
REMARK  146  A    between atoms: _357  and  _359
REMARK  147  A    between atoms: _359  and  _360
REMARK  148  A    between atoms: _363  and  _365
REMARK  149  A    between atoms: _365  and  _366
REMARK  150  A    between atoms: _365  and  _368
REMARK  151  A    between atoms: _368  and  _369
REMARK  152  A    between atoms: _369  and  _370
REMARK  153  A    between atoms: _370  and  _371
REMARK  154  A    between atoms: _371  and  _372
REMARK  155  A    between atoms: _376  and  _378
REMARK  156  A    between atoms: _378  and  _379
REMARK  157  A    between atoms: _378  and  _381
REMARK  158  A    between atoms: _381  and  _382
REMARK  159  A    between atoms: _385  and  _387
REMARK  160  A    between atoms: _387  and  _388
REMARK  161  A    between atoms: _391  and  _393
REMARK  162  A    between atoms: _393  and  _394
REMARK  163  A    between atoms: _393  and  _396
REMARK  164  A    between atoms: _396  and  _397
REMARK  165  A    between atoms: _397  and  _511
REMARK  166  A    between atoms: _398  and  _400
REMARK  167  A    between atoms: _400  and  _401
REMARK  168  A    between atoms: _400  and  _403
REMARK  169  A    between atoms: _403  and  _404
REMARK  170  A    between atoms: _404  and  _405
REMARK  171  A    between atoms: _405  and  _406
REMARK  172  A    between atoms: _406  and  _407
REMARK  173  A    between atoms: _411  and  _413
REMARK  174  A    between atoms: _413  and  _414
REMARK  175  A    between atoms: _416  and  _418
REMARK  176  A    between atoms: _418  and  _419
REMARK  177  A    between atoms: _418  and  _421
REMARK  178  A    between atoms: _421  and  _422
REMARK  179  A    between atoms: _425  and  _427
REMARK  180  A    between atoms: _427  and  _428
REMARK  181  A    between atoms: _427  and  _430
REMARK  182  A    between atoms: _430  and  _431
REMARK  183  A    between atoms: _433  and  _435
REMARK  184  A    between atoms: _435  and  _436
REMARK  185  A    between atoms: _438  and  _440
REMARK  186  A    between atoms: _440  and  _441
REMARK  187  A    between atoms: _443  and  _445
REMARK  188  A    between atoms: _445  and  _446
REMARK  189  A    between atoms: _445  and  _448
REMARK  190  A    between atoms: _448  and  _449
REMARK  191  A    between atoms: _452  and  _454
REMARK  192  A    between atoms: _454  and  _455
REMARK  193  A    between atoms: _454  and  _457
REMARK  194  A    between atoms: _457  and  _458
REMARK  195  A    between atoms: _461  and  _463
REMARK  196  A    between atoms: _463  and  _464
REMARK  197  A    between atoms: _463  and  _466
REMARK  198  A    between atoms: _466  and  _467
REMARK  199  A    between atoms: _469  and  _471
REMARK  200  A    between atoms: _471  and  _472
REMARK  201  A    between atoms: _471  and  _474
REMARK  202  A    between atoms: _474  and  _475
REMARK  203  A    between atoms: _485  and  _487
REMARK  204  A    between atoms: _487  and  _488
REMARK  205  A    between atoms: _490  and  _492
REMARK  206  A    between atoms: _492  and  _493
REMARK  207  A    between atoms: _492  and  _495
REMARK  208  A    between atoms: _495  and  _496
REMARK  209  A    between atoms: _496  and  _497
REMARK  210  A    between atoms: _500  and  _502
REMARK  211  A    between atoms: _502  and  _503
REMARK  212  A    between atoms: _505  and  _507
REMARK  213  A    between atoms: _507  and  _508
REMARK  214  A    between atoms: _507  and  _510
REMARK  215  A    between atoms: _510  and  _511
REMARK  216  A    between atoms: _512  and  _514
REMARK  217  A    between atoms: _514  and  _515
REMARK  218  A    between atoms: _518  and  _520
REMARK  219  A    between atoms: _520  and  _521
REMARK  220  A    between atoms: _520  and  _523
REMARK  221  A    between atoms: _523  and  _524
REMARK  222  A    between atoms: _524  and  _525
REMARK  223  A    between atoms: _530  and  _532
REMARK  224  A    between atoms: _532  and  _533
REMARK  225  A    between atoms: _532  and  _535
REMARK  226  A    between atoms: _535  and  _536
REMARK  227  A    between atoms: _536  and  _537
REMARK  228  A    between atoms: _537  and  _538
REMARK  229  A    between atoms: _548  and  _549
REMARK  230  A    between atoms: _554  and  _556
REMARK  231  A    between atoms: _556  and  _557
REMARK  232  A    between atoms: _559  and  _561
REMARK  233  A    between atoms: _561  and  _562
REMARK  234  A    between atoms: _561  and  _564
REMARK  235  A    between atoms: _567  and  _569
REMARK  236  A    between atoms: _569  and  _570
REMARK  237  A    between atoms: _569  and  _572
REMARK  238  A    between atoms: _572  and  _573
REMARK  239  A    between atoms: _578  and  _579
REMARK  240  A    between atoms: _581  and  _583
REMARK  241  A    between atoms: _583  and  _584
REMARK  242  A    between atoms: _583  and  _586
REMARK  243  A    between atoms: _586  and  _587
REMARK                            x       y       z     vdW  Elec       q    Type
REMARK                         _______ _______ _______ _____ _____    ______ ____
ROOT
ATOM      1  O   HOH     1      36.466 -17.572  24.554  0.00  0.00    +0.000 OA
ENDROOT
TORSDOF 0
REMARK  Name = ../refined-set-2016/4x6o/4x6o_pocket.pdb
REMARK  243 active torsions:
REMARK  status: ('A' for Active; 'I' for Inactive)
REMARK    1  A    between atoms: _1  and  _5
REMARK    2  A    between atoms: _5  and  _6
REMARK    3  A    between atoms: _5  and  _8
REMARK    4  A    between atoms: _8  and  _9
REMARK    5  A    between atoms: _12  and  _14
REMARK    6  A    between atoms: _14  and  _15
REMARK    7  A    between atoms: _14  and  _17
REMARK    8  A    between atoms: _20  and  _22
REMARK    9  A    between atoms: _22  and  _23
REMARK   10  A    between atoms: _22  and  _25
REMARK   11  A    between atoms: _25  and  _26
REMARK   12  A    between atoms: _29  and  _31
REMARK   13  A    between atoms: _31  and  _32
REMARK   14  A    between atoms: _31  and  _34
REMARK   15  A    between atoms: _34  and  _35
REMARK   16  A    between atoms: _38  and  _40
REMARK   17  A    between atoms: _40  and  _41
REMARK   18  A    between atoms: _40  and  _43
REMARK   19  A    between atoms: _43  and  _44
REMARK   20  A    between atoms: _49  and  _51
REMARK   21  A    between atoms: _51  and  _52
REMARK   22  A    between atoms: _51  and  _54
REMARK   23  A    between atoms: _54  and  _55
REMARK   24  A    between atoms: _58  and  _60
REMARK   25  A    between atoms: _60  and  _61
REMARK   26  A    between atoms: _60  and  _63
REMARK   27  A    between atoms: _63  and  _64
REMARK   28  A    between atoms: _67  and  _69
REMARK   29  A    between atoms: _69  and  _70
REMARK   30  A    between atoms: _69  and  _72
REMARK   31  A    between atoms: _72  and  _73
REMARK   32  A    between atoms: _73  and  _74
REMARK   33  A    between atoms: _79  and  _81
REMARK   34  A    between atoms: _81  and  _82
REMARK   35  A    between atoms: _81  and  _84
REMARK   36  A    between atoms: _84  and  _85
REMARK   37  A    between atoms: _85  and  _86
REMARK   38  A    between atoms: _86  and  _87
REMARK   39  A    between atoms: _96  and  _98
REMARK   40  A    between atoms: _98  and  _99
REMARK   41  A    between atoms: _98  and  _101
REMARK   42  A    between atoms: _101  and  _102
REMARK   43  A    between atoms: _107  and  _109
REMARK   44  A    between atoms: _109  and  _110
REMARK   45  A    between atoms: _109  and  _112
REMARK   46  A    between atoms: _112  and  _113
REMARK   47  A    between atoms: _116  and  _118
REMARK   48  A    between atoms: _118  and  _119
REMARK   49  A    between atoms: _118  and  _121
REMARK   50  A    between atoms: _121  and  _122
REMARK   51  A    between atoms: _122  and  _157
REMARK   52  A    between atoms: _123  and  _125
REMARK   53  A    between atoms: _125  and  _126
REMARK   54  A    between atoms: _128  and  _130
REMARK   55  A    between atoms: _130  and  _131
REMARK   56  A    between atoms: _134  and  _136
REMARK   57  A    between atoms: _136  and  _137
REMARK   58  A    between atoms: _140  and  _142
REMARK   59  A    between atoms: _142  and  _143
REMARK   60  A    between atoms: _142  and  _145
REMARK   61  A    between atoms: _145  and  _146
REMARK   62  A    between atoms: _151  and  _153
REMARK   63  A    between atoms: _153  and  _154
REMARK   64  A    between atoms: _153  and  _156
REMARK   65  A    between atoms: _156  and  _157
REMARK   66  A    between atoms: _158  and  _160
REMARK   67  A    between atoms: _160  and  _161
REMARK   68  A    between atoms: _160  and  _163
REMARK   69  A    between atoms: _163  and  _164
REMARK   70  A    between atoms: _170  and  _172
REMARK   71  A    between atoms: _172  and  _173
REMARK   72  A    between atoms: _172  and  _175
REMARK   73  A    between atoms: _175  and  _176
REMARK   74  A    between atoms: _181  and  _182
REMARK   75  A    between atoms: _184  and  _186
REMARK   76  A    between atoms: _186  and  _187
REMARK   77  A    between atoms: _186  and  _189
REMARK   78  A    between atoms: _192  and  _194
REMARK   79  A    between atoms: _194  and  _195
REMARK   80  A    between atoms: _194  and  _197
REMARK   81  A    between atoms: _197  and  _198
REMARK   82  A    between atoms: _198  and  _199
REMARK   83  A    between atoms: _204  and  _206
REMARK   84  A    between atoms: _206  and  _207
REMARK   85  A    between atoms: _210  and  _212
REMARK   86  A    between atoms: _212  and  _213
REMARK   87  A    between atoms: _212  and  _215
REMARK   88  A    between atoms: _215  and  _216
REMARK   89  A    between atoms: _219  and  _221
REMARK   90  A    between atoms: _221  and  _222
REMARK   91  A    between atoms: _221  and  _224
REMARK   92  A    between atoms: _227  and  _229
REMARK   93  A    between atoms: _229  and  _230
REMARK   94  A    between atoms: _229  and  _232
REMARK   95  A    between atoms: _232  and  _233
REMARK   96  A    between atoms: _243  and  _245
REMARK   97  A    between atoms: _245  and  _246
REMARK   98  A    between atoms: _248  and  _250
REMARK   99  A    between atoms: _250  and  _251
REMARK  100  A    between atoms: _250  and  _253
REMARK  101  A    between atoms: _253  and  _254
REMARK  102  A    between atoms: _259  and  _260
REMARK  103  A    between atoms: _262  and  _264
REMARK  104  A    between atoms: _264  and  _265
REMARK  105  A    between atoms: _264  and  _267
REMARK  106  A    between atoms: _267  and  _268
REMARK  107  A    between atoms: _268  and  _269
REMARK  108  A    between atoms: _269  and  _270
REMARK  109  A    between atoms: _270  and  _271
REMARK  110  A    between atoms: _275  and  _277
REMARK  111  A    between atoms: _277  and  _278
REMARK  112  A    between atoms: _277  and  _280
REMARK  113  A    between atoms: _280  and  _281
REMARK  114  A    between atoms: _284  and  _286
REMARK  115  A    between atoms: _286  and  _287
REMARK  116  A    between atoms: _286  and  _289
REMARK  117  A    between atoms: _289  and  _290
REMARK  118  A    between atoms: _293  and  _295
REMARK  119  A    between atoms: _295  and  _296
REMARK  120  A    between atoms: _295  and  _298
REMARK  121  A    between atoms: _298  and  _299
REMARK  122  A    between atoms: _299  and  _300
REMARK  123  A    between atoms: _300  and  _301
REMARK  124  A    between atoms: _301  and  _302
REMARK  125  A    between atoms: _306  and  _308
REMARK  126  A    between atoms: _308  and  _309
REMARK  127  A    between atoms: _308  and  _311
REMARK  128  A    between atoms: _311  and  _312
REMARK  129  A    between atoms: _315  and  _317
REMARK  130  A    between atoms: _317  and  _318
REMARK  131  A    between atoms: _317  and  _320
REMARK  132  A    between atoms: _320  and  _321
REMARK  133  A    between atoms: _321  and  _322
REMARK  134  A    between atoms: _327  and  _329
REMARK  135  A    between atoms: _329  and  _330
REMARK  136  A    between atoms: _329  and  _332
REMARK  137  A    between atoms: _332  and  _333
REMARK  138  A    between atoms: _338  and  _339
REMARK  139  A    between atoms: _341  and  _343
REMARK  140  A    between atoms: _343  and  _344
REMARK  141  A    between atoms: _343  and  _346
REMARK  142  A    between atoms: _346  and  _347
REMARK  143  A    between atoms: _350  and  _352
REMARK  144  A    between atoms: _352  and  _353
REMARK  145  A    between atoms: _352  and  _355
REMARK  146  A    between atoms: _357  and  _359
REMARK  147  A    between atoms: _359  and  _360
REMARK  148  A    between atoms: _363  and  _365
REMARK  149  A    between atoms: _365  and  _366
REMARK  150  A    between atoms: _365  and  _368
REMARK  151  A    between atoms: _368  and  _369
REMARK  152  A    between atoms: _369  and  _370
REMARK  153  A    between atoms: _370  and  _371
REMARK  154  A    between atoms: _371  and  _372
REMARK  155  A    between atoms: _376  and  _378
REMARK  156  A    between atoms: _378  and  _379
REMARK  157  A    between atoms: _378  and  _381
REMARK  158  A    between atoms: _381  and  _382
REMARK  159  A    between atoms: _385  and  _387
REMARK  160  A    between atoms: _387  and  _388
REMARK  161  A    between atoms: _391  and  _393
REMARK  162  A    between atoms: _393  and  _394
REMARK  163  A    between atoms: _393  and  _396
REMARK  164  A    between atoms: _396  and  _397
REMARK  165  A    between atoms: _397  and  _511
REMARK  166  A    between atoms: _398  and  _400
REMARK  167  A    between atoms: _400  and  _401
REMARK  168  A    between atoms: _400  and  _403
REMARK  169  A    between atoms: _403  and  _404
REMARK  170  A    between atoms: _404  and  _405
REMARK  171  A    between atoms: _405  and  _406
REMARK  172  A    between atoms: _406  and  _407
REMARK  173  A    between atoms: _411  and  _413
REMARK  174  A    between atoms: _413  and  _414
REMARK  175  A    between atoms: _416  and  _418
REMARK  176  A    between atoms: _418  and  _419
REMARK  177  A    between atoms: _418  and  _421
REMARK  178  A    between atoms: _421  and  _422
REMARK  179  A    between atoms: _425  and  _427
REMARK  180  A    between atoms: _427  and  _428
REMARK  181  A    between atoms: _427  and  _430
REMARK  182  A    between atoms: _430  and  _431
REMARK  183  A    between atoms: _433  and  _435
REMARK  184  A    between atoms: _435  and  _436
REMARK  185  A    between atoms: _438  and  _440
REMARK  186  A    between atoms: _440  and  _441
REMARK  187  A    between atoms: _443  and  _445
REMARK  188  A    between atoms: _445  and  _446
REMARK  189  A    between atoms: _445  and  _448
REMARK  190  A    between atoms: _448  and  _449
REMARK  191  A    between atoms: _452  and  _454
REMARK  192  A    between atoms: _454  and  _455
REMARK  193  A    between atoms: _454  and  _457
REMARK  194  A    between atoms: _457  and  _458
REMARK  195  A    between atoms: _461  and  _463
REMARK  196  A    between atoms: _463  and  _464
REMARK  197  A    between atoms: _463  and  _466
REMARK  198  A    between atoms: _466  and  _467
REMARK  199  A    between atoms: _469  and  _471
REMARK  200  A    between atoms: _471  and  _472
REMARK  201  A    between atoms: _471  and  _474
REMARK  202  A    between atoms: _474  and  _475
REMARK  203  A    between atoms: _485  and  _487
REMARK  204  A    between atoms: _487  and  _488
REMARK  205  A    between atoms: _490  and  _492
REMARK  206  A    between atoms: _492  and  _493
REMARK  207  A    between atoms: _492  and  _495
REMARK  208  A    between atoms: _495  and  _496
REMARK  209  A    between atoms: _496  and  _497
REMARK  210  A    between atoms: _500  and  _502
REMARK  211  A    between atoms: _502  and  _503
REMARK  212  A    between atoms: _505  and  _507
REMARK  213  A    between atoms: _507  and  _508
REMARK  214  A    between atoms: _507  and  _510
REMARK  215  A    between atoms: _510  and  _511
REMARK  216  A    between atoms: _512  and  _514
REMARK  217  A    between atoms: _514  and  _515
REMARK  218  A    between atoms: _518  and  _520
REMARK  219  A    between atoms: _520  and  _521
REMARK  220  A    between atoms: _520  and  _523
REMARK  221  A    between atoms: _523  and  _524
REMARK  222  A    between atoms: _524  and  _525
REMARK  223  A    between atoms: _530  and  _532
REMARK  224  A    between atoms: _532  and  _533
REMARK  225  A    between atoms: _532  and  _535
REMARK  226  A    between atoms: _535  and  _536
REMARK  227  A    between atoms: _536  and  _537
REMARK  228  A    between atoms: _537  and  _538
REMARK  229  A    between atoms: _548  and  _549
REMARK  230  A    between atoms: _554  and  _556
REMARK  231  A    between atoms: _556  and  _557
REMARK  232  A    between atoms: _559  and  _561
REMARK  233  A    between atoms: _561  and  _562
REMARK  234  A    between atoms: _561  and  _564
REMARK  235  A    between atoms: _567  and  _569
REMARK  236  A    between atoms: _569  and  _570
REMARK  237  A    between atoms: _569  and  _572
REMARK  238  A    between atoms: _572  and  _573
REMARK  239  A    between atoms: _578  and  _579
REMARK  240  A    between atoms: _581  and  _583
REMARK  241  A    between atoms: _583  and  _584
REMARK  242  A    between atoms: _583  and  _586
REMARK  243  A    between atoms: _586  and  _587
REMARK                            x       y       z     vdW  Elec       q    Type
REMARK                         _______ _______ _______ _____ _____    ______ ____
ROOT
ATOM      1  O   HOH     1      36.451  -9.195  23.958  0.00  0.00    +0.000 OA
ENDROOT
TORSDOF 0
REMARK  Name = ../refined-set-2016/4x6o/4x6o_pocket.pdb
REMARK  243 active torsions:
REMARK  status: ('A' for Active; 'I' for Inactive)
REMARK    1  A    between atoms: _1  and  _5
REMARK    2  A    between atoms: _5  and  _6
REMARK    3  A    between atoms: _5  and  _8
REMARK    4  A    between atoms: _8  and  _9
REMARK    5  A    between atoms: _12  and  _14
REMARK    6  A    between atoms: _14  and  _15
REMARK    7  A    between atoms: _14  and  _17
REMARK    8  A    between atoms: _20  and  _22
REMARK    9  A    between atoms: _22  and  _23
REMARK   10  A    between atoms: _22  and  _25
REMARK   11  A    between atoms: _25  and  _26
REMARK   12  A    between atoms: _29  and  _31
REMARK   13  A    between atoms: _31  and  _32
REMARK   14  A    between atoms: _31  and  _34
REMARK   15  A    between atoms: _34  and  _35
REMARK   16  A    between atoms: _38  and  _40
REMARK   17  A    between atoms: _40  and  _41
REMARK   18  A    between atoms: _40  and  _43
REMARK   19  A    between atoms: _43  and  _44
REMARK   20  A    between atoms: _49  and  _51
REMARK   21  A    between atoms: _51  and  _52
REMARK   22  A    between atoms: _51  and  _54
REMARK   23  A    between atoms: _54  and  _55
REMARK   24  A    between atoms: _58  and  _60
REMARK   25  A    between atoms: _60  and  _61
REMARK   26  A    between atoms: _60  and  _63
REMARK   27  A    between atoms: _63  and  _64
REMARK   28  A    between atoms: _67  and  _69
REMARK   29  A    between atoms: _69  and  _70
REMARK   30  A    between atoms: _69  and  _72
REMARK   31  A    between atoms: _72  and  _73
REMARK   32  A    between atoms: _73  and  _74
REMARK   33  A    between atoms: _79  and  _81
REMARK   34  A    between atoms: _81  and  _82
REMARK   35  A    between atoms: _81  and  _84
REMARK   36  A    between atoms: _84  and  _85
REMARK   37  A    between atoms: _85  and  _86
REMARK   38  A    between atoms: _86  and  _87
REMARK   39  A    between atoms: _96  and  _98
REMARK   40  A    between atoms: _98  and  _99
REMARK   41  A    between atoms: _98  and  _101
REMARK   42  A    between atoms: _101  and  _102
REMARK   43  A    between atoms: _107  and  _109
REMARK   44  A    between atoms: _109  and  _110
REMARK   45  A    between atoms: _109  and  _112
REMARK   46  A    between atoms: _112  and  _113
REMARK   47  A    between atoms: _116  and  _118
REMARK   48  A    between atoms: _118  and  _119
REMARK   49  A    between atoms: _118  and  _121
REMARK   50  A    between atoms: _121  and  _122
REMARK   51  A    between atoms: _122  and  _157
REMARK   52  A    between atoms: _123  and  _125
REMARK   53  A    between atoms: _125  and  _126
REMARK   54  A    between atoms: _128  and  _130
REMARK   55  A    between atoms: _130  and  _131
REMARK   56  A    between atoms: _134  and  _136
REMARK   57  A    between atoms: _136  and  _137
REMARK   58  A    between atoms: _140  and  _142
REMARK   59  A    between atoms: _142  and  _143
REMARK   60  A    between atoms: _142  and  _145
REMARK   61  A    between atoms: _145  and  _146
REMARK   62  A    between atoms: _151  and  _153
REMARK   63  A    between atoms: _153  and  _154
REMARK   64  A    between atoms: _153  and  _156
REMARK   65  A    between atoms: _156  and  _157
REMARK   66  A    between atoms: _158  and  _160
REMARK   67  A    between atoms: _160  and  _161
REMARK   68  A    between atoms: _160  and  _163
REMARK   69  A    between atoms: _163  and  _164
REMARK   70  A    between atoms: _170  and  _172
REMARK   71  A    between atoms: _172  and  _173
REMARK   72  A    between atoms: _172  and  _175
REMARK   73  A    between atoms: _175  and  _176
REMARK   74  A    between atoms: _181  and  _182
REMARK   75  A    between atoms: _184  and  _186
REMARK   76  A    between atoms: _186  and  _187
REMARK   77  A    between atoms: _186  and  _189
REMARK   78  A    between atoms: _192  and  _194
REMARK   79  A    between atoms: _194  and  _195
REMARK   80  A    between atoms: _194  and  _197
REMARK   81  A    between atoms: _197  and  _198
REMARK   82  A    between atoms: _198  and  _199
REMARK   83  A    between atoms: _204  and  _206
REMARK   84  A    between atoms: _206  and  _207
REMARK   85  A    between atoms: _210  and  _212
REMARK   86  A    between atoms: _212  and  _213
REMARK   87  A    between atoms: _212  and  _215
REMARK   88  A    between atoms: _215  and  _216
REMARK   89  A    between atoms: _219  and  _221
REMARK   90  A    between atoms: _221  and  _222
REMARK   91  A    between atoms: _221  and  _224
REMARK   92  A    between atoms: _227  and  _229
REMARK   93  A    between atoms: _229  and  _230
REMARK   94  A    between atoms: _229  and  _232
REMARK   95  A    between atoms: _232  and  _233
REMARK   96  A    between atoms: _243  and  _245
REMARK   97  A    between atoms: _245  and  _246
REMARK   98  A    between atoms: _248  and  _250
REMARK   99  A    between atoms: _250  and  _251
REMARK  100  A    between atoms: _250  and  _253
REMARK  101  A    between atoms: _253  and  _254
REMARK  102  A    between atoms: _259  and  _260
REMARK  103  A    between atoms: _262  and  _264
REMARK  104  A    between atoms: _264  and  _265
REMARK  105  A    between atoms: _264  and  _267
REMARK  106  A    between atoms: _267  and  _268
REMARK  107  A    between atoms: _268  and  _269
REMARK  108  A    between atoms: _269  and  _270
REMARK  109  A    between atoms: _270  and  _271
REMARK  110  A    between atoms: _275  and  _277
REMARK  111  A    between atoms: _277  and  _278
REMARK  112  A    between atoms: _277  and  _280
REMARK  113  A    between atoms: _280  and  _281
REMARK  114  A    between atoms: _284  and  _286
REMARK  115  A    between atoms: _286  and  _287
REMARK  116  A    between atoms: _286  and  _289
REMARK  117  A    between atoms: _289  and  _290
REMARK  118  A    between atoms: _293  and  _295
REMARK  119  A    between atoms: _295  and  _296
REMARK  120  A    between atoms: _295  and  _298
REMARK  121  A    between atoms: _298  and  _299
REMARK  122  A    between atoms: _299  and  _300
REMARK  123  A    between atoms: _300  and  _301
REMARK  124  A    between atoms: _301  and  _302
REMARK  125  A    between atoms: _306  and  _308
REMARK  126  A    between atoms: _308  and  _309
REMARK  127  A    between atoms: _308  and  _311
REMARK  128  A    between atoms: _311  and  _312
REMARK  129  A    between atoms: _315  and  _317
REMARK  130  A    between atoms: _317  and  _318
REMARK  131  A    between atoms: _317  and  _320
REMARK  132  A    between atoms: _320  and  _321
REMARK  133  A    between atoms: _321  and  _322
REMARK  134  A    between atoms: _327  and  _329
REMARK  135  A    between atoms: _329  and  _330
REMARK  136  A    between atoms: _329  and  _332
REMARK  137  A    between atoms: _332  and  _333
REMARK  138  A    between atoms: _338  and  _339
REMARK  139  A    between atoms: _341  and  _343
REMARK  140  A    between atoms: _343  and  _344
REMARK  141  A    between atoms: _343  and  _346
REMARK  142  A    between atoms: _346  and  _347
REMARK  143  A    between atoms: _350  and  _352
REMARK  144  A    between atoms: _352  and  _353
REMARK  145  A    between atoms: _352  and  _355
REMARK  146  A    between atoms: _357  and  _359
REMARK  147  A    between atoms: _359  and  _360
REMARK  148  A    between atoms: _363  and  _365
REMARK  149  A    between atoms: _365  and  _366
REMARK  150  A    between atoms: _365  and  _368
REMARK  151  A    between atoms: _368  and  _369
REMARK  152  A    between atoms: _369  and  _370
REMARK  153  A    between atoms: _370  and  _371
REMARK  154  A    between atoms: _371  and  _372
REMARK  155  A    between atoms: _376  and  _378
REMARK  156  A    between atoms: _378  and  _379
REMARK  157  A    between atoms: _378  and  _381
REMARK  158  A    between atoms: _381  and  _382
REMARK  159  A    between atoms: _385  and  _387
REMARK  160  A    between atoms: _387  and  _388
REMARK  161  A    between atoms: _391  and  _393
REMARK  162  A    between atoms: _393  and  _394
REMARK  163  A    between atoms: _393  and  _396
REMARK  164  A    between atoms: _396  and  _397
REMARK  165  A    between atoms: _397  and  _511
REMARK  166  A    between atoms: _398  and  _400
REMARK  167  A    between atoms: _400  and  _401
REMARK  168  A    between atoms: _400  and  _403
REMARK  169  A    between atoms: _403  and  _404
REMARK  170  A    between atoms: _404  and  _405
REMARK  171  A    between atoms: _405  and  _406
REMARK  172  A    between atoms: _406  and  _407
REMARK  173  A    between atoms: _411  and  _413
REMARK  174  A    between atoms: _413  and  _414
REMARK  175  A    between atoms: _416  and  _418
REMARK  176  A    between atoms: _418  and  _419
REMARK  177  A    between atoms: _418  and  _421
REMARK  178  A    between atoms: _421  and  _422
REMARK  179  A    between atoms: _425  and  _427
REMARK  180  A    between atoms: _427  and  _428
REMARK  181  A    between atoms: _427  and  _430
REMARK  182  A    between atoms: _430  and  _431
REMARK  183  A    between atoms: _433  and  _435
REMARK  184  A    between atoms: _435  and  _436
REMARK  185  A    between atoms: _438  and  _440
REMARK  186  A    between atoms: _440  and  _441
REMARK  187  A    between atoms: _443  and  _445
REMARK  188  A    between atoms: _445  and  _446
REMARK  189  A    between atoms: _445  and  _448
REMARK  190  A    between atoms: _448  and  _449
REMARK  191  A    between atoms: _452  and  _454
REMARK  192  A    between atoms: _454  and  _455
REMARK  193  A    between atoms: _454  and  _457
REMARK  194  A    between atoms: _457  and  _458
REMARK  195  A    between atoms: _461  and  _463
REMARK  196  A    between atoms: _463  and  _464
REMARK  197  A    between atoms: _463  and  _466
REMARK  198  A    between atoms: _466  and  _467
REMARK  199  A    between atoms: _469  and  _471
REMARK  200  A    between atoms: _471  and  _472
REMARK  201  A    between atoms: _471  and  _474
REMARK  202  A    between atoms: _474  and  _475
REMARK  203  A    between atoms: _485  and  _487
REMARK  204  A    between atoms: _487  and  _488
REMARK  205  A    between atoms: _490  and  _492
REMARK  206  A    between atoms: _492  and  _493
REMARK  207  A    between atoms: _492  and  _495
REMARK  208  A    between atoms: _495  and  _496
REMARK  209  A    between atoms: _496  and  _497
REMARK  210  A    between atoms: _500  and  _502
REMARK  211  A    between atoms: _502  and  _503
REMARK  212  A    between atoms: _505  and  _507
REMARK  213  A    between atoms: _507  and  _508
REMARK  214  A    between atoms: _507  and  _510
REMARK  215  A    between atoms: _510  and  _511
REMARK  216  A    between atoms: _512  and  _514
REMARK  217  A    between atoms: _514  and  _515
REMARK  218  A    between atoms: _518  and  _520
REMARK  219  A    between atoms: _520  and  _521
REMARK  220  A    between atoms: _520  and  _523
REMARK  221  A    between atoms: _523  and  _524
REMARK  222  A    between atoms: _524  and  _525
REMARK  223  A    between atoms: _530  and  _532
REMARK  224  A    between atoms: _532  and  _533
REMARK  225  A    between atoms: _532  and  _535
REMARK  226  A    between atoms: _535  and  _536
REMARK  227  A    between atoms: _536  and  _537
REMARK  228  A    between atoms: _537  and  _538
REMARK  229  A    between atoms: _548  and  _549
REMARK  230  A    between atoms: _554  and  _556
REMARK  231  A    between atoms: _556  and  _557
REMARK  232  A    between atoms: _559  and  _561
REMARK  233  A    between atoms: _561  and  _562
REMARK  234  A    between atoms: _561  and  _564
REMARK  235  A    between atoms: _567  and  _569
REMARK  236  A    between atoms: _569  and  _570
REMARK  237  A    between atoms: _569  and  _572
REMARK  238  A    between atoms: _572  and  _573
REMARK  239  A    between atoms: _578  and  _579
REMARK  240  A    between atoms: _581  and  _583
REMARK  241  A    between atoms: _583  and  _584
REMARK  242  A    between atoms: _583  and  _586
REMARK  243  A    between atoms: _586  and  _587
REMARK                            x       y       z     vdW  Elec       q    Type
REMARK                         _______ _______ _______ _____ _____    ______ ____
ROOT
ATOM      1  O   HOH     1      40.897 -17.879  37.640  0.00  0.00    +0.000 OA
ENDROOT
TORSDOF 0
REMARK  Name = ../refined-set-2016/4x6o/4x6o_pocket.pdb
REMARK  243 active torsions:
REMARK  status: ('A' for Active; 'I' for Inactive)
REMARK    1  A    between atoms: _1  and  _5
REMARK    2  A    between atoms: _5  and  _6
REMARK    3  A    between atoms: _5  and  _8
REMARK    4  A    between atoms: _8  and  _9
REMARK    5  A    between atoms: _12  and  _14
REMARK    6  A    between atoms: _14  and  _15
REMARK    7  A    between atoms: _14  and  _17
REMARK    8  A    between atoms: _20  and  _22
REMARK    9  A    between atoms: _22  and  _23
REMARK   10  A    between atoms: _22  and  _25
REMARK   11  A    between atoms: _25  and  _26
REMARK   12  A    between atoms: _29  and  _31
REMARK   13  A    between atoms: _31  and  _32
REMARK   14  A    between atoms: _31  and  _34
REMARK   15  A    between atoms: _34  and  _35
REMARK   16  A    between atoms: _38  and  _40
REMARK   17  A    between atoms: _40  and  _41
REMARK   18  A    between atoms: _40  and  _43
REMARK   19  A    between atoms: _43  and  _44
REMARK   20  A    between atoms: _49  and  _51
REMARK   21  A    between atoms: _51  and  _52
REMARK   22  A    between atoms: _51  and  _54
REMARK   23  A    between atoms: _54  and  _55
REMARK   24  A    between atoms: _58  and  _60
REMARK   25  A    between atoms: _60  and  _61
REMARK   26  A    between atoms: _60  and  _63
REMARK   27  A    between atoms: _63  and  _64
REMARK   28  A    between atoms: _67  and  _69
REMARK   29  A    between atoms: _69  and  _70
REMARK   30  A    between atoms: _69  and  _72
REMARK   31  A    between atoms: _72  and  _73
REMARK   32  A    between atoms: _73  and  _74
REMARK   33  A    between atoms: _79  and  _81
REMARK   34  A    between atoms: _81  and  _82
REMARK   35  A    between atoms: _81  and  _84
REMARK   36  A    between atoms: _84  and  _85
REMARK   37  A    between atoms: _85  and  _86
REMARK   38  A    between atoms: _86  and  _87
REMARK   39  A    between atoms: _96  and  _98
REMARK   40  A    between atoms: _98  and  _99
REMARK   41  A    between atoms: _98  and  _101
REMARK   42  A    between atoms: _101  and  _102
REMARK   43  A    between atoms: _107  and  _109
REMARK   44  A    between atoms: _109  and  _110
REMARK   45  A    between atoms: _109  and  _112
REMARK   46  A    between atoms: _112  and  _113
REMARK   47  A    between atoms: _116  and  _118
REMARK   48  A    between atoms: _118  and  _119
REMARK   49  A    between atoms: _118  and  _121
REMARK   50  A    between atoms: _121  and  _122
REMARK   51  A    between atoms: _122  and  _157
REMARK   52  A    between atoms: _123  and  _125
REMARK   53  A    between atoms: _125  and  _126
REMARK   54  A    between atoms: _128  and  _130
REMARK   55  A    between atoms: _130  and  _131
REMARK   56  A    between atoms: _134  and  _136
REMARK   57  A    between atoms: _136  and  _137
REMARK   58  A    between atoms: _140  and  _142
REMARK   59  A    between atoms: _142  and  _143
REMARK   60  A    between atoms: _142  and  _145
REMARK   61  A    between atoms: _145  and  _146
REMARK   62  A    between atoms: _151  and  _153
REMARK   63  A    between atoms: _153  and  _154
REMARK   64  A    between atoms: _153  and  _156
REMARK   65  A    between atoms: _156  and  _157
REMARK   66  A    between atoms: _158  and  _160
REMARK   67  A    between atoms: _160  and  _161
REMARK   68  A    between atoms: _160  and  _163
REMARK   69  A    between atoms: _163  and  _164
REMARK   70  A    between atoms: _170  and  _172
REMARK   71  A    between atoms: _172  and  _173
REMARK   72  A    between atoms: _172  and  _175
REMARK   73  A    between atoms: _175  and  _176
REMARK   74  A    between atoms: _181  and  _182
REMARK   75  A    between atoms: _184  and  _186
REMARK   76  A    between atoms: _186  and  _187
REMARK   77  A    between atoms: _186  and  _189
REMARK   78  A    between atoms: _192  and  _194
REMARK   79  A    between atoms: _194  and  _195
REMARK   80  A    between atoms: _194  and  _197
REMARK   81  A    between atoms: _197  and  _198
REMARK   82  A    between atoms: _198  and  _199
REMARK   83  A    between atoms: _204  and  _206
REMARK   84  A    between atoms: _206  and  _207
REMARK   85  A    between atoms: _210  and  _212
REMARK   86  A    between atoms: _212  and  _213
REMARK   87  A    between atoms: _212  and  _215
REMARK   88  A    between atoms: _215  and  _216
REMARK   89  A    between atoms: _219  and  _221
REMARK   90  A    between atoms: _221  and  _222
REMARK   91  A    between atoms: _221  and  _224
REMARK   92  A    between atoms: _227  and  _229
REMARK   93  A    between atoms: _229  and  _230
REMARK   94  A    between atoms: _229  and  _232
REMARK   95  A    between atoms: _232  and  _233
REMARK   96  A    between atoms: _243  and  _245
REMARK   97  A    between atoms: _245  and  _246
REMARK   98  A    between atoms: _248  and  _250
REMARK   99  A    between atoms: _250  and  _251
REMARK  100  A    between atoms: _250  and  _253
REMARK  101  A    between atoms: _253  and  _254
REMARK  102  A    between atoms: _259  and  _260
REMARK  103  A    between atoms: _262  and  _264
REMARK  104  A    between atoms: _264  and  _265
REMARK  105  A    between atoms: _264  and  _267
REMARK  106  A    between atoms: _267  and  _268
REMARK  107  A    between atoms: _268  and  _269
REMARK  108  A    between atoms: _269  and  _270
REMARK  109  A    between atoms: _270  and  _271
REMARK  110  A    between atoms: _275  and  _277
REMARK  111  A    between atoms: _277  and  _278
REMARK  112  A    between atoms: _277  and  _280
REMARK  113  A    between atoms: _280  and  _281
REMARK  114  A    between atoms: _284  and  _286
REMARK  115  A    between atoms: _286  and  _287
REMARK  116  A    between atoms: _286  and  _289
REMARK  117  A    between atoms: _289  and  _290
REMARK  118  A    between atoms: _293  and  _295
REMARK  119  A    between atoms: _295  and  _296
REMARK  120  A    between atoms: _295  and  _298
REMARK  121  A    between atoms: _298  and  _299
REMARK  122  A    between atoms: _299  and  _300
REMARK  123  A    between atoms: _300  and  _301
REMARK  124  A    between atoms: _301  and  _302
REMARK  125  A    between atoms: _306  and  _308
REMARK  126  A    between atoms: _308  and  _309
REMARK  127  A    between atoms: _308  and  _311
REMARK  128  A    between atoms: _311  and  _312
REMARK  129  A    between atoms: _315  and  _317
REMARK  130  A    between atoms: _317  and  _318
REMARK  131  A    between atoms: _317  and  _320
REMARK  132  A    between atoms: _320  and  _321
REMARK  133  A    between atoms: _321  and  _322
REMARK  134  A    between atoms: _327  and  _329
REMARK  135  A    between atoms: _329  and  _330
REMARK  136  A    between atoms: _329  and  _332
REMARK  137  A    between atoms: _332  and  _333
REMARK  138  A    between atoms: _338  and  _339
REMARK  139  A    between atoms: _341  and  _343
REMARK  140  A    between atoms: _343  and  _344
REMARK  141  A    between atoms: _343  and  _346
REMARK  142  A    between atoms: _346  and  _347
REMARK  143  A    between atoms: _350  and  _352
REMARK  144  A    between atoms: _352  and  _353
REMARK  145  A    between atoms: _352  and  _355
REMARK  146  A    between atoms: _357  and  _359
REMARK  147  A    between atoms: _359  and  _360
REMARK  148  A    between atoms: _363  and  _365
REMARK  149  A    between atoms: _365  and  _366
REMARK  150  A    between atoms: _365  and  _368
REMARK  151  A    between atoms: _368  and  _369
REMARK  152  A    between atoms: _369  and  _370
REMARK  153  A    between atoms: _370  and  _371
REMARK  154  A    between atoms: _371  and  _372
REMARK  155  A    between atoms: _376  and  _378
REMARK  156  A    between atoms: _378  and  _379
REMARK  157  A    between atoms: _378  and  _381
REMARK  158  A    between atoms: _381  and  _382
REMARK  159  A    between atoms: _385  and  _387
REMARK  160  A    between atoms: _387  and  _388
REMARK  161  A    between atoms: _391  and  _393
REMARK  162  A    between atoms: _393  and  _394
REMARK  163  A    between atoms: _393  and  _396
REMARK  164  A    between atoms: _396  and  _397
REMARK  165  A    between atoms: _397  and  _511
REMARK  166  A    between atoms: _398  and  _400
REMARK  167  A    between atoms: _400  and  _401
REMARK  168  A    between atoms: _400  and  _403
REMARK  169  A    between atoms: _403  and  _404
REMARK  170  A    between atoms: _404  and  _405
REMARK  171  A    between atoms: _405  and  _406
REMARK  172  A    between atoms: _406  and  _407
REMARK  173  A    between atoms: _411  and  _413
REMARK  174  A    between atoms: _413  and  _414
REMARK  175  A    between atoms: _416  and  _418
REMARK  176  A    between atoms: _418  and  _419
REMARK  177  A    between atoms: _418  and  _421
REMARK  178  A    between atoms: _421  and  _422
REMARK  179  A    between atoms: _425  and  _427
REMARK  180  A    between atoms: _427  and  _428
REMARK  181  A    between atoms: _427  and  _430
REMARK  182  A    between atoms: _430  and  _431
REMARK  183  A    between atoms: _433  and  _435
REMARK  184  A    between atoms: _435  and  _436
REMARK  185  A    between atoms: _438  and  _440
REMARK  186  A    between atoms: _440  and  _441
REMARK  187  A    between atoms: _443  and  _445
REMARK  188  A    between atoms: _445  and  _446
REMARK  189  A    between atoms: _445  and  _448
REMARK  190  A    between atoms: _448  and  _449
REMARK  191  A    between atoms: _452  and  _454
REMARK  192  A    between atoms: _454  and  _455
REMARK  193  A    between atoms: _454  and  _457
REMARK  194  A    between atoms: _457  and  _458
REMARK  195  A    between atoms: _461  and  _463
REMARK  196  A    between atoms: _463  and  _464
REMARK  197  A    between atoms: _463  and  _466
REMARK  198  A    between atoms: _466  and  _467
REMARK  199  A    between atoms: _469  and  _471
REMARK  200  A    between atoms: _471  and  _472
REMARK  201  A    between atoms: _471  and  _474
REMARK  202  A    between atoms: _474  and  _475
REMARK  203  A    between atoms: _485  and  _487
REMARK  204  A    between atoms: _487  and  _488
REMARK  205  A    between atoms: _490  and  _492
REMARK  206  A    between atoms: _492  and  _493
REMARK  207  A    between atoms: _492  and  _495
REMARK  208  A    between atoms: _495  and  _496
REMARK  209  A    between atoms: _496  and  _497
REMARK  210  A    between atoms: _500  and  _502
REMARK  211  A    between atoms: _502  and  _503
REMARK  212  A    between atoms: _505  and  _507
REMARK  213  A    between atoms: _507  and  _508
REMARK  214  A    between atoms: _507  and  _510
REMARK  215  A    between atoms: _510  and  _511
REMARK  216  A    between atoms: _512  and  _514
REMARK  217  A    between atoms: _514  and  _515
REMARK  218  A    between atoms: _518  and  _520
REMARK  219  A    between atoms: _520  and  _521
REMARK  220  A    between atoms: _520  and  _523
REMARK  221  A    between atoms: _523  and  _524
REMARK  222  A    between atoms: _524  and  _525
REMARK  223  A    between atoms: _530  and  _532
REMARK  224  A    between atoms: _532  and  _533
REMARK  225  A    between atoms: _532  and  _535
REMARK  226  A    between atoms: _535  and  _536
REMARK  227  A    between atoms: _536  and  _537
REMARK  228  A    between atoms: _537  and  _538
REMARK  229  A    between atoms: _548  and  _549
REMARK  230  A    between atoms: _554  and  _556
REMARK  231  A    between atoms: _556  and  _557
REMARK  232  A    between atoms: _559  and  _561
REMARK  233  A    between atoms: _561  and  _562
REMARK  234  A    between atoms: _561  and  _564
REMARK  235  A    between atoms: _567  and  _569
REMARK  236  A    between atoms: _569  and  _570
REMARK  237  A    between atoms: _569  and  _572
REMARK  238  A    between atoms: _572  and  _573
REMARK  239  A    between atoms: _578  and  _579
REMARK  240  A    between atoms: _581  and  _583
REMARK  241  A    between atoms: _583  and  _584
REMARK  242  A    between atoms: _583  and  _586
REMARK  243  A    between atoms: _586  and  _587
REMARK                            x       y       z     vdW  Elec       q    Type
REMARK                         _______ _______ _______ _____ _____    ______ ____
ROOT
ATOM      1  O   HOH     1      41.018 -29.182  29.962  0.00  0.00    +0.000 OA
ENDROOT
TORSDOF 0
REMARK  Name = ../refined-set-2016/4x6o/4x6o_pocket.pdb
REMARK  243 active torsions:
REMARK  status: ('A' for Active; 'I' for Inactive)
REMARK    1  A    between atoms: _1  and  _5
REMARK    2  A    between atoms: _5  and  _6
REMARK    3  A    between atoms: _5  and  _8
REMARK    4  A    between atoms: _8  and  _9
REMARK    5  A    between atoms: _12  and  _14
REMARK    6  A    between atoms: _14  and  _15
REMARK    7  A    between atoms: _14  and  _17
REMARK    8  A    between atoms: _20  and  _22
REMARK    9  A    between atoms: _22  and  _23
REMARK   10  A    between atoms: _22  and  _25
REMARK   11  A    between atoms: _25  and  _26
REMARK   12  A    between atoms: _29  and  _31
REMARK   13  A    between atoms: _31  and  _32
REMARK   14  A    between atoms: _31  and  _34
REMARK   15  A    between atoms: _34  and  _35
REMARK   16  A    between atoms: _38  and  _40
REMARK   17  A    between atoms: _40  and  _41
REMARK   18  A    between atoms: _40  and  _43
REMARK   19  A    between atoms: _43  and  _44
REMARK   20  A    between atoms: _49  and  _51
REMARK   21  A    between atoms: _51  and  _52
REMARK   22  A    between atoms: _51  and  _54
REMARK   23  A    between atoms: _54  and  _55
REMARK   24  A    between atoms: _58  and  _60
REMARK   25  A    between atoms: _60  and  _61
REMARK   26  A    between atoms: _60  and  _63
REMARK   27  A    between atoms: _63  and  _64
REMARK   28  A    between atoms: _67  and  _69
REMARK   29  A    between atoms: _69  and  _70
REMARK   30  A    between atoms: _69  and  _72
REMARK   31  A    between atoms: _72  and  _73
REMARK   32  A    between atoms: _73  and  _74
REMARK   33  A    between atoms: _79  and  _81
REMARK   34  A    between atoms: _81  and  _82
REMARK   35  A    between atoms: _81  and  _84
REMARK   36  A    between atoms: _84  and  _85
REMARK   37  A    between atoms: _85  and  _86
REMARK   38  A    between atoms: _86  and  _87
REMARK   39  A    between atoms: _96  and  _98
REMARK   40  A    between atoms: _98  and  _99
REMARK   41  A    between atoms: _98  and  _101
REMARK   42  A    between atoms: _101  and  _102
REMARK   43  A    between atoms: _107  and  _109
REMARK   44  A    between atoms: _109  and  _110
REMARK   45  A    between atoms: _109  and  _112
REMARK   46  A    between atoms: _112  and  _113
REMARK   47  A    between atoms: _116  and  _118
REMARK   48  A    between atoms: _118  and  _119
REMARK   49  A    between atoms: _118  and  _121
REMARK   50  A    between atoms: _121  and  _122
REMARK   51  A    between atoms: _122  and  _157
REMARK   52  A    between atoms: _123  and  _125
REMARK   53  A    between atoms: _125  and  _126
REMARK   54  A    between atoms: _128  and  _130
REMARK   55  A    between atoms: _130  and  _131
REMARK   56  A    between atoms: _134  and  _136
REMARK   57  A    between atoms: _136  and  _137
REMARK   58  A    between atoms: _140  and  _142
REMARK   59  A    between atoms: _142  and  _143
REMARK   60  A    between atoms: _142  and  _145
REMARK   61  A    between atoms: _145  and  _146
REMARK   62  A    between atoms: _151  and  _153
REMARK   63  A    between atoms: _153  and  _154
REMARK   64  A    between atoms: _153  and  _156
REMARK   65  A    between atoms: _156  and  _157
REMARK   66  A    between atoms: _158  and  _160
REMARK   67  A    between atoms: _160  and  _161
REMARK   68  A    between atoms: _160  and  _163
REMARK   69  A    between atoms: _163  and  _164
REMARK   70  A    between atoms: _170  and  _172
REMARK   71  A    between atoms: _172  and  _173
REMARK   72  A    between atoms: _172  and  _175
REMARK   73  A    between atoms: _175  and  _176
REMARK   74  A    between atoms: _181  and  _182
REMARK   75  A    between atoms: _184  and  _186
REMARK   76  A    between atoms: _186  and  _187
REMARK   77  A    between atoms: _186  and  _189
REMARK   78  A    between atoms: _192  and  _194
REMARK   79  A    between atoms: _194  and  _195
REMARK   80  A    between atoms: _194  and  _197
REMARK   81  A    between atoms: _197  and  _198
REMARK   82  A    between atoms: _198  and  _199
REMARK   83  A    between atoms: _204  and  _206
REMARK   84  A    between atoms: _206  and  _207
REMARK   85  A    between atoms: _210  and  _212
REMARK   86  A    between atoms: _212  and  _213
REMARK   87  A    between atoms: _212  and  _215
REMARK   88  A    between atoms: _215  and  _216
REMARK   89  A    between atoms: _219  and  _221
REMARK   90  A    between atoms: _221  and  _222
REMARK   91  A    between atoms: _221  and  _224
REMARK   92  A    between atoms: _227  and  _229
REMARK   93  A    between atoms: _229  and  _230
REMARK   94  A    between atoms: _229  and  _232
REMARK   95  A    between atoms: _232  and  _233
REMARK   96  A    between atoms: _243  and  _245
REMARK   97  A    between atoms: _245  and  _246
REMARK   98  A    between atoms: _248  and  _250
REMARK   99  A    between atoms: _250  and  _251
REMARK  100  A    between atoms: _250  and  _253
REMARK  101  A    between atoms: _253  and  _254
REMARK  102  A    between atoms: _259  and  _260
REMARK  103  A    between atoms: _262  and  _264
REMARK  104  A    between atoms: _264  and  _265
REMARK  105  A    between atoms: _264  and  _267
REMARK  106  A    between atoms: _267  and  _268
REMARK  107  A    between atoms: _268  and  _269
REMARK  108  A    between atoms: _269  and  _270
REMARK  109  A    between atoms: _270  and  _271
REMARK  110  A    between atoms: _275  and  _277
REMARK  111  A    between atoms: _277  and  _278
REMARK  112  A    between atoms: _277  and  _280
REMARK  113  A    between atoms: _280  and  _281
REMARK  114  A    between atoms: _284  and  _286
REMARK  115  A    between atoms: _286  and  _287
REMARK  116  A    between atoms: _286  and  _289
REMARK  117  A    between atoms: _289  and  _290
REMARK  118  A    between atoms: _293  and  _295
REMARK  119  A    between atoms: _295  and  _296
REMARK  120  A    between atoms: _295  and  _298
REMARK  121  A    between atoms: _298  and  _299
REMARK  122  A    between atoms: _299  and  _300
REMARK  123  A    between atoms: _300  and  _301
REMARK  124  A    between atoms: _301  and  _302
REMARK  125  A    between atoms: _306  and  _308
REMARK  126  A    between atoms: _308  and  _309
REMARK  127  A    between atoms: _308  and  _311
REMARK  128  A    between atoms: _311  and  _312
REMARK  129  A    between atoms: _315  and  _317
REMARK  130  A    between atoms: _317  and  _318
REMARK  131  A    between atoms: _317  and  _320
REMARK  132  A    between atoms: _320  and  _321
REMARK  133  A    between atoms: _321  and  _322
REMARK  134  A    between atoms: _327  and  _329
REMARK  135  A    between atoms: _329  and  _330
REMARK  136  A    between atoms: _329  and  _332
REMARK  137  A    between atoms: _332  and  _333
REMARK  138  A    between atoms: _338  and  _339
REMARK  139  A    between atoms: _341  and  _343
REMARK  140  A    between atoms: _343  and  _344
REMARK  141  A    between atoms: _343  and  _346
REMARK  142  A    between atoms: _346  and  _347
REMARK  143  A    between atoms: _350  and  _352
REMARK  144  A    between atoms: _352  and  _353
REMARK  145  A    between atoms: _352  and  _355
REMARK  146  A    between atoms: _357  and  _359
REMARK  147  A    between atoms: _359  and  _360
REMARK  148  A    between atoms: _363  and  _365
REMARK  149  A    between atoms: _365  and  _366
REMARK  150  A    between atoms: _365  and  _368
REMARK  151  A    between atoms: _368  and  _369
REMARK  152  A    between atoms: _369  and  _370
REMARK  153  A    between atoms: _370  and  _371
REMARK  154  A    between atoms: _371  and  _372
REMARK  155  A    between atoms: _376  and  _378
REMARK  156  A    between atoms: _378  and  _379
REMARK  157  A    between atoms: _378  and  _381
REMARK  158  A    between atoms: _381  and  _382
REMARK  159  A    between atoms: _385  and  _387
REMARK  160  A    between atoms: _387  and  _388
REMARK  161  A    between atoms: _391  and  _393
REMARK  162  A    between atoms: _393  and  _394
REMARK  163  A    between atoms: _393  and  _396
REMARK  164  A    between atoms: _396  and  _397
REMARK  165  A    between atoms: _397  and  _511
REMARK  166  A    between atoms: _398  and  _400
REMARK  167  A    between atoms: _400  and  _401
REMARK  168  A    between atoms: _400  and  _403
REMARK  169  A    between atoms: _403  and  _404
REMARK  170  A    between atoms: _404  and  _405
REMARK  171  A    between atoms: _405  and  _406
REMARK  172  A    between atoms: _406  and  _407
REMARK  173  A    between atoms: _411  and  _413
REMARK  174  A    between atoms: _413  and  _414
REMARK  175  A    between atoms: _416  and  _418
REMARK  176  A    between atoms: _418  and  _419
REMARK  177  A    between atoms: _418  and  _421
REMARK  178  A    between atoms: _421  and  _422
REMARK  179  A    between atoms: _425  and  _427
REMARK  180  A    between atoms: _427  and  _428
REMARK  181  A    between atoms: _427  and  _430
REMARK  182  A    between atoms: _430  and  _431
REMARK  183  A    between atoms: _433  and  _435
REMARK  184  A    between atoms: _435  and  _436
REMARK  185  A    between atoms: _438  and  _440
REMARK  186  A    between atoms: _440  and  _441
REMARK  187  A    between atoms: _443  and  _445
REMARK  188  A    between atoms: _445  and  _446
REMARK  189  A    between atoms: _445  and  _448
REMARK  190  A    between atoms: _448  and  _449
REMARK  191  A    between atoms: _452  and  _454
REMARK  192  A    between atoms: _454  and  _455
REMARK  193  A    between atoms: _454  and  _457
REMARK  194  A    between atoms: _457  and  _458
REMARK  195  A    between atoms: _461  and  _463
REMARK  196  A    between atoms: _463  and  _464
REMARK  197  A    between atoms: _463  and  _466
REMARK  198  A    between atoms: _466  and  _467
REMARK  199  A    between atoms: _469  and  _471
REMARK  200  A    between atoms: _471  and  _472
REMARK  201  A    between atoms: _471  and  _474
REMARK  202  A    between atoms: _474  and  _475
REMARK  203  A    between atoms: _485  and  _487
REMARK  204  A    between atoms: _487  and  _488
REMARK  205  A    between atoms: _490  and  _492
REMARK  206  A    between atoms: _492  and  _493
REMARK  207  A    between atoms: _492  and  _495
REMARK  208  A    between atoms: _495  and  _496
REMARK  209  A    between atoms: _496  and  _497
REMARK  210  A    between atoms: _500  and  _502
REMARK  211  A    between atoms: _502  and  _503
REMARK  212  A    between atoms: _505  and  _507
REMARK  213  A    between atoms: _507  and  _508
REMARK  214  A    between atoms: _507  and  _510
REMARK  215  A    between atoms: _510  and  _511
REMARK  216  A    between atoms: _512  and  _514
REMARK  217  A    between atoms: _514  and  _515
REMARK  218  A    between atoms: _518  and  _520
REMARK  219  A    between atoms: _520  and  _521
REMARK  220  A    between atoms: _520  and  _523
REMARK  221  A    between atoms: _523  and  _524
REMARK  222  A    between atoms: _524  and  _525
REMARK  223  A    between atoms: _530  and  _532
REMARK  224  A    between atoms: _532  and  _533
REMARK  225  A    between atoms: _532  and  _535
REMARK  226  A    between atoms: _535  and  _536
REMARK  227  A    between atoms: _536  and  _537
REMARK  228  A    between atoms: _537  and  _538
REMARK  229  A    between atoms: _548  and  _549
REMARK  230  A    between atoms: _554  and  _556
REMARK  231  A    between atoms: _556  and  _557
REMARK  232  A    between atoms: _559  and  _561
REMARK  233  A    between atoms: _561  and  _562
REMARK  234  A    between atoms: _561  and  _564
REMARK  235  A    between atoms: _567  and  _569
REMARK  236  A    between atoms: _569  and  _570
REMARK  237  A    between atoms: _569  and  _572
REMARK  238  A    between atoms: _572  and  _573
REMARK  239  A    between atoms: _578  and  _579
REMARK  240  A    between atoms: _581  and  _583
REMARK  241  A    between atoms: _583  and  _584
REMARK  242  A    between atoms: _583  and  _586
REMARK  243  A    between atoms: _586  and  _587
REMARK                            x       y       z     vdW  Elec       q    Type
REMARK                         _______ _______ _______ _____ _____    ______ ____
ROOT
ATOM      1  O   HOH     1      40.803 -21.289  32.268  0.00  0.00    +0.000 OA
ENDROOT
TORSDOF 0
REMARK  Name = ../refined-set-2016/4x6o/4x6o_pocket.pdb
REMARK  243 active torsions:
REMARK  status: ('A' for Active; 'I' for Inactive)
REMARK    1  A    between atoms: _1  and  _5
REMARK    2  A    between atoms: _5  and  _6
REMARK    3  A    between atoms: _5  and  _8
REMARK    4  A    between atoms: _8  and  _9
REMARK    5  A    between atoms: _12  and  _14
REMARK    6  A    between atoms: _14  and  _15
REMARK    7  A    between atoms: _14  and  _17
REMARK    8  A    between atoms: _20  and  _22
REMARK    9  A    between atoms: _22  and  _23
REMARK   10  A    between atoms: _22  and  _25
REMARK   11  A    between atoms: _25  and  _26
REMARK   12  A    between atoms: _29  and  _31
REMARK   13  A    between atoms: _31  and  _32
REMARK   14  A    between atoms: _31  and  _34
REMARK   15  A    between atoms: _34  and  _35
REMARK   16  A    between atoms: _38  and  _40
REMARK   17  A    between atoms: _40  and  _41
REMARK   18  A    between atoms: _40  and  _43
REMARK   19  A    between atoms: _43  and  _44
REMARK   20  A    between atoms: _49  and  _51
REMARK   21  A    between atoms: _51  and  _52
REMARK   22  A    between atoms: _51  and  _54
REMARK   23  A    between atoms: _54  and  _55
REMARK   24  A    between atoms: _58  and  _60
REMARK   25  A    between atoms: _60  and  _61
REMARK   26  A    between atoms: _60  and  _63
REMARK   27  A    between atoms: _63  and  _64
REMARK   28  A    between atoms: _67  and  _69
REMARK   29  A    between atoms: _69  and  _70
REMARK   30  A    between atoms: _69  and  _72
REMARK   31  A    between atoms: _72  and  _73
REMARK   32  A    between atoms: _73  and  _74
REMARK   33  A    between atoms: _79  and  _81
REMARK   34  A    between atoms: _81  and  _82
REMARK   35  A    between atoms: _81  and  _84
REMARK   36  A    between atoms: _84  and  _85
REMARK   37  A    between atoms: _85  and  _86
REMARK   38  A    between atoms: _86  and  _87
REMARK   39  A    between atoms: _96  and  _98
REMARK   40  A    between atoms: _98  and  _99
REMARK   41  A    between atoms: _98  and  _101
REMARK   42  A    between atoms: _101  and  _102
REMARK   43  A    between atoms: _107  and  _109
REMARK   44  A    between atoms: _109  and  _110
REMARK   45  A    between atoms: _109  and  _112
REMARK   46  A    between atoms: _112  and  _113
REMARK   47  A    between atoms: _116  and  _118
REMARK   48  A    between atoms: _118  and  _119
REMARK   49  A    between atoms: _118  and  _121
REMARK   50  A    between atoms: _121  and  _122
REMARK   51  A    between atoms: _122  and  _157
REMARK   52  A    between atoms: _123  and  _125
REMARK   53  A    between atoms: _125  and  _126
REMARK   54  A    between atoms: _128  and  _130
REMARK   55  A    between atoms: _130  and  _131
REMARK   56  A    between atoms: _134  and  _136
REMARK   57  A    between atoms: _136  and  _137
REMARK   58  A    between atoms: _140  and  _142
REMARK   59  A    between atoms: _142  and  _143
REMARK   60  A    between atoms: _142  and  _145
REMARK   61  A    between atoms: _145  and  _146
REMARK   62  A    between atoms: _151  and  _153
REMARK   63  A    between atoms: _153  and  _154
REMARK   64  A    between atoms: _153  and  _156
REMARK   65  A    between atoms: _156  and  _157
REMARK   66  A    between atoms: _158  and  _160
REMARK   67  A    between atoms: _160  and  _161
REMARK   68  A    between atoms: _160  and  _163
REMARK   69  A    between atoms: _163  and  _164
REMARK   70  A    between atoms: _170  and  _172
REMARK   71  A    between atoms: _172  and  _173
REMARK   72  A    between atoms: _172  and  _175
REMARK   73  A    between atoms: _175  and  _176
REMARK   74  A    between atoms: _181  and  _182
REMARK   75  A    between atoms: _184  and  _186
REMARK   76  A    between atoms: _186  and  _187
REMARK   77  A    between atoms: _186  and  _189
REMARK   78  A    between atoms: _192  and  _194
REMARK   79  A    between atoms: _194  and  _195
REMARK   80  A    between atoms: _194  and  _197
REMARK   81  A    between atoms: _197  and  _198
REMARK   82  A    between atoms: _198  and  _199
REMARK   83  A    between atoms: _204  and  _206
REMARK   84  A    between atoms: _206  and  _207
REMARK   85  A    between atoms: _210  and  _212
REMARK   86  A    between atoms: _212  and  _213
REMARK   87  A    between atoms: _212  and  _215
REMARK   88  A    between atoms: _215  and  _216
REMARK   89  A    between atoms: _219  and  _221
REMARK   90  A    between atoms: _221  and  _222
REMARK   91  A    between atoms: _221  and  _224
REMARK   92  A    between atoms: _227  and  _229
REMARK   93  A    between atoms: _229  and  _230
REMARK   94  A    between atoms: _229  and  _232
REMARK   95  A    between atoms: _232  and  _233
REMARK   96  A    between atoms: _243  and  _245
REMARK   97  A    between atoms: _245  and  _246
REMARK   98  A    between atoms: _248  and  _250
REMARK   99  A    between atoms: _250  and  _251
REMARK  100  A    between atoms: _250  and  _253
REMARK  101  A    between atoms: _253  and  _254
REMARK  102  A    between atoms: _259  and  _260
REMARK  103  A    between atoms: _262  and  _264
REMARK  104  A    between atoms: _264  and  _265
REMARK  105  A    between atoms: _264  and  _267
REMARK  106  A    between atoms: _267  and  _268
REMARK  107  A    between atoms: _268  and  _269
REMARK  108  A    between atoms: _269  and  _270
REMARK  109  A    between atoms: _270  and  _271
REMARK  110  A    between atoms: _275  and  _277
REMARK  111  A    between atoms: _277  and  _278
REMARK  112  A    between atoms: _277  and  _280
REMARK  113  A    between atoms: _280  and  _281
REMARK  114  A    between atoms: _284  and  _286
REMARK  115  A    between atoms: _286  and  _287
REMARK  116  A    between atoms: _286  and  _289
REMARK  117  A    between atoms: _289  and  _290
REMARK  118  A    between atoms: _293  and  _295
REMARK  119  A    between atoms: _295  and  _296
REMARK  120  A    between atoms: _295  and  _298
REMARK  121  A    between atoms: _298  and  _299
REMARK  122  A    between atoms: _299  and  _300
REMARK  123  A    between atoms: _300  and  _301
REMARK  124  A    between atoms: _301  and  _302
REMARK  125  A    between atoms: _306  and  _308
REMARK  126  A    between atoms: _308  and  _309
REMARK  127  A    between atoms: _308  and  _311
REMARK  128  A    between atoms: _311  and  _312
REMARK  129  A    between atoms: _315  and  _317
REMARK  130  A    between atoms: _317  and  _318
REMARK  131  A    between atoms: _317  and  _320
REMARK  132  A    between atoms: _320  and  _321
REMARK  133  A    between atoms: _321  and  _322
REMARK  134  A    between atoms: _327  and  _329
REMARK  135  A    between atoms: _329  and  _330
REMARK  136  A    between atoms: _329  and  _332
REMARK  137  A    between atoms: _332  and  _333
REMARK  138  A    between atoms: _338  and  _339
REMARK  139  A    between atoms: _341  and  _343
REMARK  140  A    between atoms: _343  and  _344
REMARK  141  A    between atoms: _343  and  _346
REMARK  142  A    between atoms: _346  and  _347
REMARK  143  A    between atoms: _350  and  _352
REMARK  144  A    between atoms: _352  and  _353
REMARK  145  A    between atoms: _352  and  _355
REMARK  146  A    between atoms: _357  and  _359
REMARK  147  A    between atoms: _359  and  _360
REMARK  148  A    between atoms: _363  and  _365
REMARK  149  A    between atoms: _365  and  _366
REMARK  150  A    between atoms: _365  and  _368
REMARK  151  A    between atoms: _368  and  _369
REMARK  152  A    between atoms: _369  and  _370
REMARK  153  A    between atoms: _370  and  _371
REMARK  154  A    between atoms: _371  and  _372
REMARK  155  A    between atoms: _376  and  _378
REMARK  156  A    between atoms: _378  and  _379
REMARK  157  A    between atoms: _378  and  _381
REMARK  158  A    between atoms: _381  and  _382
REMARK  159  A    between atoms: _385  and  _387
REMARK  160  A    between atoms: _387  and  _388
REMARK  161  A    between atoms: _391  and  _393
REMARK  162  A    between atoms: _393  and  _394
REMARK  163  A    between atoms: _393  and  _396
REMARK  164  A    between atoms: _396  and  _397
REMARK  165  A    between atoms: _397  and  _511
REMARK  166  A    between atoms: _398  and  _400
REMARK  167  A    between atoms: _400  and  _401
REMARK  168  A    between atoms: _400  and  _403
REMARK  169  A    between atoms: _403  and  _404
REMARK  170  A    between atoms: _404  and  _405
REMARK  171  A    between atoms: _405  and  _406
REMARK  172  A    between atoms: _406  and  _407
REMARK  173  A    between atoms: _411  and  _413
REMARK  174  A    between atoms: _413  and  _414
REMARK  175  A    between atoms: _416  and  _418
REMARK  176  A    between atoms: _418  and  _419
REMARK  177  A    between atoms: _418  and  _421
REMARK  178  A    between atoms: _421  and  _422
REMARK  179  A    between atoms: _425  and  _427
REMARK  180  A    between atoms: _427  and  _428
REMARK  181  A    between atoms: _427  and  _430
REMARK  182  A    between atoms: _430  and  _431
REMARK  183  A    between atoms: _433  and  _435
REMARK  184  A    between atoms: _435  and  _436
REMARK  185  A    between atoms: _438  and  _440
REMARK  186  A    between atoms: _440  and  _441
REMARK  187  A    between atoms: _443  and  _445
REMARK  188  A    between atoms: _445  and  _446
REMARK  189  A    between atoms: _445  and  _448
REMARK  190  A    between atoms: _448  and  _449
REMARK  191  A    between atoms: _452  and  _454
REMARK  192  A    between atoms: _454  and  _455
REMARK  193  A    between atoms: _454  and  _457
REMARK  194  A    between atoms: _457  and  _458
REMARK  195  A    between atoms: _461  and  _463
REMARK  196  A    between atoms: _463  and  _464
REMARK  197  A    between atoms: _463  and  _466
REMARK  198  A    between atoms: _466  and  _467
REMARK  199  A    between atoms: _469  and  _471
REMARK  200  A    between atoms: _471  and  _472
REMARK  201  A    between atoms: _471  and  _474
REMARK  202  A    between atoms: _474  and  _475
REMARK  203  A    between atoms: _485  and  _487
REMARK  204  A    between atoms: _487  and  _488
REMARK  205  A    between atoms: _490  and  _492
REMARK  206  A    between atoms: _492  and  _493
REMARK  207  A    between atoms: _492  and  _495
REMARK  208  A    between atoms: _495  and  _496
REMARK  209  A    between atoms: _496  and  _497
REMARK  210  A    between atoms: _500  and  _502
REMARK  211  A    between atoms: _502  and  _503
REMARK  212  A    between atoms: _505  and  _507
REMARK  213  A    between atoms: _507  and  _508
REMARK  214  A    between atoms: _507  and  _510
REMARK  215  A    between atoms: _510  and  _511
REMARK  216  A    between atoms: _512  and  _514
REMARK  217  A    between atoms: _514  and  _515
REMARK  218  A    between atoms: _518  and  _520
REMARK  219  A    between atoms: _520  and  _521
REMARK  220  A    between atoms: _520  and  _523
REMARK  221  A    between atoms: _523  and  _524
REMARK  222  A    between atoms: _524  and  _525
REMARK  223  A    between atoms: _530  and  _532
REMARK  224  A    between atoms: _532  and  _533
REMARK  225  A    between atoms: _532  and  _535
REMARK  226  A    between atoms: _535  and  _536
REMARK  227  A    between atoms: _536  and  _537
REMARK  228  A    between atoms: _537  and  _538
REMARK  229  A    between atoms: _548  and  _549
REMARK  230  A    between atoms: _554  and  _556
REMARK  231  A    between atoms: _556  and  _557
REMARK  232  A    between atoms: _559  and  _561
REMARK  233  A    between atoms: _561  and  _562
REMARK  234  A    between atoms: _561  and  _564
REMARK  235  A    between atoms: _567  and  _569
REMARK  236  A    between atoms: _569  and  _570
REMARK  237  A    between atoms: _569  and  _572
REMARK  238  A    between atoms: _572  and  _573
REMARK  239  A    between atoms: _578  and  _579
REMARK  240  A    between atoms: _581  and  _583
REMARK  241  A    between atoms: _583  and  _584
REMARK  242  A    between atoms: _583  and  _586
REMARK  243  A    between atoms: _586  and  _587
REMARK                            x       y       z     vdW  Elec       q    Type
REMARK                         _______ _______ _______ _____ _____    ______ ____
ROOT
ATOM      1  O   HOH     1      35.413 -15.419  36.869  0.00  0.00    +0.000 OA
ENDROOT
TORSDOF 0
REMARK  Name = ../refined-set-2016/4x6o/4x6o_pocket.pdb
REMARK  243 active torsions:
REMARK  status: ('A' for Active; 'I' for Inactive)
REMARK    1  A    between atoms: _1  and  _5
REMARK    2  A    between atoms: _5  and  _6
REMARK    3  A    between atoms: _5  and  _8
REMARK    4  A    between atoms: _8  and  _9
REMARK    5  A    between atoms: _12  and  _14
REMARK    6  A    between atoms: _14  and  _15
REMARK    7  A    between atoms: _14  and  _17
REMARK    8  A    between atoms: _20  and  _22
REMARK    9  A    between atoms: _22  and  _23
REMARK   10  A    between atoms: _22  and  _25
REMARK   11  A    between atoms: _25  and  _26
REMARK   12  A    between atoms: _29  and  _31
REMARK   13  A    between atoms: _31  and  _32
REMARK   14  A    between atoms: _31  and  _34
REMARK   15  A    between atoms: _34  and  _35
REMARK   16  A    between atoms: _38  and  _40
REMARK   17  A    between atoms: _40  and  _41
REMARK   18  A    between atoms: _40  and  _43
REMARK   19  A    between atoms: _43  and  _44
REMARK   20  A    between atoms: _49  and  _51
REMARK   21  A    between atoms: _51  and  _52
REMARK   22  A    between atoms: _51  and  _54
REMARK   23  A    between atoms: _54  and  _55
REMARK   24  A    between atoms: _58  and  _60
REMARK   25  A    between atoms: _60  and  _61
REMARK   26  A    between atoms: _60  and  _63
REMARK   27  A    between atoms: _63  and  _64
REMARK   28  A    between atoms: _67  and  _69
REMARK   29  A    between atoms: _69  and  _70
REMARK   30  A    between atoms: _69  and  _72
REMARK   31  A    between atoms: _72  and  _73
REMARK   32  A    between atoms: _73  and  _74
REMARK   33  A    between atoms: _79  and  _81
REMARK   34  A    between atoms: _81  and  _82
REMARK   35  A    between atoms: _81  and  _84
REMARK   36  A    between atoms: _84  and  _85
REMARK   37  A    between atoms: _85  and  _86
REMARK   38  A    between atoms: _86  and  _87
REMARK   39  A    between atoms: _96  and  _98
REMARK   40  A    between atoms: _98  and  _99
REMARK   41  A    between atoms: _98  and  _101
REMARK   42  A    between atoms: _101  and  _102
REMARK   43  A    between atoms: _107  and  _109
REMARK   44  A    between atoms: _109  and  _110
REMARK   45  A    between atoms: _109  and  _112
REMARK   46  A    between atoms: _112  and  _113
REMARK   47  A    between atoms: _116  and  _118
REMARK   48  A    between atoms: _118  and  _119
REMARK   49  A    between atoms: _118  and  _121
REMARK   50  A    between atoms: _121  and  _122
REMARK   51  A    between atoms: _122  and  _157
REMARK   52  A    between atoms: _123  and  _125
REMARK   53  A    between atoms: _125  and  _126
REMARK   54  A    between atoms: _128  and  _130
REMARK   55  A    between atoms: _130  and  _131
REMARK   56  A    between atoms: _134  and  _136
REMARK   57  A    between atoms: _136  and  _137
REMARK   58  A    between atoms: _140  and  _142
REMARK   59  A    between atoms: _142  and  _143
REMARK   60  A    between atoms: _142  and  _145
REMARK   61  A    between atoms: _145  and  _146
REMARK   62  A    between atoms: _151  and  _153
REMARK   63  A    between atoms: _153  and  _154
REMARK   64  A    between atoms: _153  and  _156
REMARK   65  A    between atoms: _156  and  _157
REMARK   66  A    between atoms: _158  and  _160
REMARK   67  A    between atoms: _160  and  _161
REMARK   68  A    between atoms: _160  and  _163
REMARK   69  A    between atoms: _163  and  _164
REMARK   70  A    between atoms: _170  and  _172
REMARK   71  A    between atoms: _172  and  _173
REMARK   72  A    between atoms: _172  and  _175
REMARK   73  A    between atoms: _175  and  _176
REMARK   74  A    between atoms: _181  and  _182
REMARK   75  A    between atoms: _184  and  _186
REMARK   76  A    between atoms: _186  and  _187
REMARK   77  A    between atoms: _186  and  _189
REMARK   78  A    between atoms: _192  and  _194
REMARK   79  A    between atoms: _194  and  _195
REMARK   80  A    between atoms: _194  and  _197
REMARK   81  A    between atoms: _197  and  _198
REMARK   82  A    between atoms: _198  and  _199
REMARK   83  A    between atoms: _204  and  _206
REMARK   84  A    between atoms: _206  and  _207
REMARK   85  A    between atoms: _210  and  _212
REMARK   86  A    between atoms: _212  and  _213
REMARK   87  A    between atoms: _212  and  _215
REMARK   88  A    between atoms: _215  and  _216
REMARK   89  A    between atoms: _219  and  _221
REMARK   90  A    between atoms: _221  and  _222
REMARK   91  A    between atoms: _221  and  _224
REMARK   92  A    between atoms: _227  and  _229
REMARK   93  A    between atoms: _229  and  _230
REMARK   94  A    between atoms: _229  and  _232
REMARK   95  A    between atoms: _232  and  _233
REMARK   96  A    between atoms: _243  and  _245
REMARK   97  A    between atoms: _245  and  _246
REMARK   98  A    between atoms: _248  and  _250
REMARK   99  A    between atoms: _250  and  _251
REMARK  100  A    between atoms: _250  and  _253
REMARK  101  A    between atoms: _253  and  _254
REMARK  102  A    between atoms: _259  and  _260
REMARK  103  A    between atoms: _262  and  _264
REMARK  104  A    between atoms: _264  and  _265
REMARK  105  A    between atoms: _264  and  _267
REMARK  106  A    between atoms: _267  and  _268
REMARK  107  A    between atoms: _268  and  _269
REMARK  108  A    between atoms: _269  and  _270
REMARK  109  A    between atoms: _270  and  _271
REMARK  110  A    between atoms: _275  and  _277
REMARK  111  A    between atoms: _277  and  _278
REMARK  112  A    between atoms: _277  and  _280
REMARK  113  A    between atoms: _280  and  _281
REMARK  114  A    between atoms: _284  and  _286
REMARK  115  A    between atoms: _286  and  _287
REMARK  116  A    between atoms: _286  and  _289
REMARK  117  A    between atoms: _289  and  _290
REMARK  118  A    between atoms: _293  and  _295
REMARK  119  A    between atoms: _295  and  _296
REMARK  120  A    between atoms: _295  and  _298
REMARK  121  A    between atoms: _298  and  _299
REMARK  122  A    between atoms: _299  and  _300
REMARK  123  A    between atoms: _300  and  _301
REMARK  124  A    between atoms: _301  and  _302
REMARK  125  A    between atoms: _306  and  _308
REMARK  126  A    between atoms: _308  and  _309
REMARK  127  A    between atoms: _308  and  _311
REMARK  128  A    between atoms: _311  and  _312
REMARK  129  A    between atoms: _315  and  _317
REMARK  130  A    between atoms: _317  and  _318
REMARK  131  A    between atoms: _317  and  _320
REMARK  132  A    between atoms: _320  and  _321
REMARK  133  A    between atoms: _321  and  _322
REMARK  134  A    between atoms: _327  and  _329
REMARK  135  A    between atoms: _329  and  _330
REMARK  136  A    between atoms: _329  and  _332
REMARK  137  A    between atoms: _332  and  _333
REMARK  138  A    between atoms: _338  and  _339
REMARK  139  A    between atoms: _341  and  _343
REMARK  140  A    between atoms: _343  and  _344
REMARK  141  A    between atoms: _343  and  _346
REMARK  142  A    between atoms: _346  and  _347
REMARK  143  A    between atoms: _350  and  _352
REMARK  144  A    between atoms: _352  and  _353
REMARK  145  A    between atoms: _352  and  _355
REMARK  146  A    between atoms: _357  and  _359
REMARK  147  A    between atoms: _359  and  _360
REMARK  148  A    between atoms: _363  and  _365
REMARK  149  A    between atoms: _365  and  _366
REMARK  150  A    between atoms: _365  and  _368
REMARK  151  A    between atoms: _368  and  _369
REMARK  152  A    between atoms: _369  and  _370
REMARK  153  A    between atoms: _370  and  _371
REMARK  154  A    between atoms: _371  and  _372
REMARK  155  A    between atoms: _376  and  _378
REMARK  156  A    between atoms: _378  and  _379
REMARK  157  A    between atoms: _378  and  _381
REMARK  158  A    between atoms: _381  and  _382
REMARK  159  A    between atoms: _385  and  _387
REMARK  160  A    between atoms: _387  and  _388
REMARK  161  A    between atoms: _391  and  _393
REMARK  162  A    between atoms: _393  and  _394
REMARK  163  A    between atoms: _393  and  _396
REMARK  164  A    between atoms: _396  and  _397
REMARK  165  A    between atoms: _397  and  _511
REMARK  166  A    between atoms: _398  and  _400
REMARK  167  A    between atoms: _400  and  _401
REMARK  168  A    between atoms: _400  and  _403
REMARK  169  A    between atoms: _403  and  _404
REMARK  170  A    between atoms: _404  and  _405
REMARK  171  A    between atoms: _405  and  _406
REMARK  172  A    between atoms: _406  and  _407
REMARK  173  A    between atoms: _411  and  _413
REMARK  174  A    between atoms: _413  and  _414
REMARK  175  A    between atoms: _416  and  _418
REMARK  176  A    between atoms: _418  and  _419
REMARK  177  A    between atoms: _418  and  _421
REMARK  178  A    between atoms: _421  and  _422
REMARK  179  A    between atoms: _425  and  _427
REMARK  180  A    between atoms: _427  and  _428
REMARK  181  A    between atoms: _427  and  _430
REMARK  182  A    between atoms: _430  and  _431
REMARK  183  A    between atoms: _433  and  _435
REMARK  184  A    between atoms: _435  and  _436
REMARK  185  A    between atoms: _438  and  _440
REMARK  186  A    between atoms: _440  and  _441
REMARK  187  A    between atoms: _443  and  _445
REMARK  188  A    between atoms: _445  and  _446
REMARK  189  A    between atoms: _445  and  _448
REMARK  190  A    between atoms: _448  and  _449
REMARK  191  A    between atoms: _452  and  _454
REMARK  192  A    between atoms: _454  and  _455
REMARK  193  A    between atoms: _454  and  _457
REMARK  194  A    between atoms: _457  and  _458
REMARK  195  A    between atoms: _461  and  _463
REMARK  196  A    between atoms: _463  and  _464
REMARK  197  A    between atoms: _463  and  _466
REMARK  198  A    between atoms: _466  and  _467
REMARK  199  A    between atoms: _469  and  _471
REMARK  200  A    between atoms: _471  and  _472
REMARK  201  A    between atoms: _471  and  _474
REMARK  202  A    between atoms: _474  and  _475
REMARK  203  A    between atoms: _485  and  _487
REMARK  204  A    between atoms: _487  and  _488
REMARK  205  A    between atoms: _490  and  _492
REMARK  206  A    between atoms: _492  and  _493
REMARK  207  A    between atoms: _492  and  _495
REMARK  208  A    between atoms: _495  and  _496
REMARK  209  A    between atoms: _496  and  _497
REMARK  210  A    between atoms: _500  and  _502
REMARK  211  A    between atoms: _502  and  _503
REMARK  212  A    between atoms: _505  and  _507
REMARK  213  A    between atoms: _507  and  _508
REMARK  214  A    between atoms: _507  and  _510
REMARK  215  A    between atoms: _510  and  _511
REMARK  216  A    between atoms: _512  and  _514
REMARK  217  A    between atoms: _514  and  _515
REMARK  218  A    between atoms: _518  and  _520
REMARK  219  A    between atoms: _520  and  _521
REMARK  220  A    between atoms: _520  and  _523
REMARK  221  A    between atoms: _523  and  _524
REMARK  222  A    between atoms: _524  and  _525
REMARK  223  A    between atoms: _530  and  _532
REMARK  224  A    between atoms: _532  and  _533
REMARK  225  A    between atoms: _532  and  _535
REMARK  226  A    between atoms: _535  and  _536
REMARK  227  A    between atoms: _536  and  _537
REMARK  228  A    between atoms: _537  and  _538
REMARK  229  A    between atoms: _548  and  _549
REMARK  230  A    between atoms: _554  and  _556
REMARK  231  A    between atoms: _556  and  _557
REMARK  232  A    between atoms: _559  and  _561
REMARK  233  A    between atoms: _561  and  _562
REMARK  234  A    between atoms: _561  and  _564
REMARK  235  A    between atoms: _567  and  _569
REMARK  236  A    between atoms: _569  and  _570
REMARK  237  A    between atoms: _569  and  _572
REMARK  238  A    between atoms: _572  and  _573
REMARK  239  A    between atoms: _578  and  _579
REMARK  240  A    between atoms: _581  and  _583
REMARK  241  A    between atoms: _583  and  _584
REMARK  242  A    between atoms: _583  and  _586
REMARK  243  A    between atoms: _586  and  _587
REMARK                            x       y       z     vdW  Elec       q    Type
REMARK                         _______ _______ _______ _____ _____    ______ ____
ROOT
ATOM      1  O   HOH     1      35.869 -20.388  26.243  0.00  0.00    +0.000 OA
ENDROOT
TORSDOF 0
REMARK  Name = ../refined-set-2016/4x6o/4x6o_pocket.pdb
REMARK  243 active torsions:
REMARK  status: ('A' for Active; 'I' for Inactive)
REMARK    1  A    between atoms: _1  and  _5
REMARK    2  A    between atoms: _5  and  _6
REMARK    3  A    between atoms: _5  and  _8
REMARK    4  A    between atoms: _8  and  _9
REMARK    5  A    between atoms: _12  and  _14
REMARK    6  A    between atoms: _14  and  _15
REMARK    7  A    between atoms: _14  and  _17
REMARK    8  A    between atoms: _20  and  _22
REMARK    9  A    between atoms: _22  and  _23
REMARK   10  A    between atoms: _22  and  _25
REMARK   11  A    between atoms: _25  and  _26
REMARK   12  A    between atoms: _29  and  _31
REMARK   13  A    between atoms: _31  and  _32
REMARK   14  A    between atoms: _31  and  _34
REMARK   15  A    between atoms: _34  and  _35
REMARK   16  A    between atoms: _38  and  _40
REMARK   17  A    between atoms: _40  and  _41
REMARK   18  A    between atoms: _40  and  _43
REMARK   19  A    between atoms: _43  and  _44
REMARK   20  A    between atoms: _49  and  _51
REMARK   21  A    between atoms: _51  and  _52
REMARK   22  A    between atoms: _51  and  _54
REMARK   23  A    between atoms: _54  and  _55
REMARK   24  A    between atoms: _58  and  _60
REMARK   25  A    between atoms: _60  and  _61
REMARK   26  A    between atoms: _60  and  _63
REMARK   27  A    between atoms: _63  and  _64
REMARK   28  A    between atoms: _67  and  _69
REMARK   29  A    between atoms: _69  and  _70
REMARK   30  A    between atoms: _69  and  _72
REMARK   31  A    between atoms: _72  and  _73
REMARK   32  A    between atoms: _73  and  _74
REMARK   33  A    between atoms: _79  and  _81
REMARK   34  A    between atoms: _81  and  _82
REMARK   35  A    between atoms: _81  and  _84
REMARK   36  A    between atoms: _84  and  _85
REMARK   37  A    between atoms: _85  and  _86
REMARK   38  A    between atoms: _86  and  _87
REMARK   39  A    between atoms: _96  and  _98
REMARK   40  A    between atoms: _98  and  _99
REMARK   41  A    between atoms: _98  and  _101
REMARK   42  A    between atoms: _101  and  _102
REMARK   43  A    between atoms: _107  and  _109
REMARK   44  A    between atoms: _109  and  _110
REMARK   45  A    between atoms: _109  and  _112
REMARK   46  A    between atoms: _112  and  _113
REMARK   47  A    between atoms: _116  and  _118
REMARK   48  A    between atoms: _118  and  _119
REMARK   49  A    between atoms: _118  and  _121
REMARK   50  A    between atoms: _121  and  _122
REMARK   51  A    between atoms: _122  and  _157
REMARK   52  A    between atoms: _123  and  _125
REMARK   53  A    between atoms: _125  and  _126
REMARK   54  A    between atoms: _128  and  _130
REMARK   55  A    between atoms: _130  and  _131
REMARK   56  A    between atoms: _134  and  _136
REMARK   57  A    between atoms: _136  and  _137
REMARK   58  A    between atoms: _140  and  _142
REMARK   59  A    between atoms: _142  and  _143
REMARK   60  A    between atoms: _142  and  _145
REMARK   61  A    between atoms: _145  and  _146
REMARK   62  A    between atoms: _151  and  _153
REMARK   63  A    between atoms: _153  and  _154
REMARK   64  A    between atoms: _153  and  _156
REMARK   65  A    between atoms: _156  and  _157
REMARK   66  A    between atoms: _158  and  _160
REMARK   67  A    between atoms: _160  and  _161
REMARK   68  A    between atoms: _160  and  _163
REMARK   69  A    between atoms: _163  and  _164
REMARK   70  A    between atoms: _170  and  _172
REMARK   71  A    between atoms: _172  and  _173
REMARK   72  A    between atoms: _172  and  _175
REMARK   73  A    between atoms: _175  and  _176
REMARK   74  A    between atoms: _181  and  _182
REMARK   75  A    between atoms: _184  and  _186
REMARK   76  A    between atoms: _186  and  _187
REMARK   77  A    between atoms: _186  and  _189
REMARK   78  A    between atoms: _192  and  _194
REMARK   79  A    between atoms: _194  and  _195
REMARK   80  A    between atoms: _194  and  _197
REMARK   81  A    between atoms: _197  and  _198
REMARK   82  A    between atoms: _198  and  _199
REMARK   83  A    between atoms: _204  and  _206
REMARK   84  A    between atoms: _206  and  _207
REMARK   85  A    between atoms: _210  and  _212
REMARK   86  A    between atoms: _212  and  _213
REMARK   87  A    between atoms: _212  and  _215
REMARK   88  A    between atoms: _215  and  _216
REMARK   89  A    between atoms: _219  and  _221
REMARK   90  A    between atoms: _221  and  _222
REMARK   91  A    between atoms: _221  and  _224
REMARK   92  A    between atoms: _227  and  _229
REMARK   93  A    between atoms: _229  and  _230
REMARK   94  A    between atoms: _229  and  _232
REMARK   95  A    between atoms: _232  and  _233
REMARK   96  A    between atoms: _243  and  _245
REMARK   97  A    between atoms: _245  and  _246
REMARK   98  A    between atoms: _248  and  _250
REMARK   99  A    between atoms: _250  and  _251
REMARK  100  A    between atoms: _250  and  _253
REMARK  101  A    between atoms: _253  and  _254
REMARK  102  A    between atoms: _259  and  _260
REMARK  103  A    between atoms: _262  and  _264
REMARK  104  A    between atoms: _264  and  _265
REMARK  105  A    between atoms: _264  and  _267
REMARK  106  A    between atoms: _267  and  _268
REMARK  107  A    between atoms: _268  and  _269
REMARK  108  A    between atoms: _269  and  _270
REMARK  109  A    between atoms: _270  and  _271
REMARK  110  A    between atoms: _275  and  _277
REMARK  111  A    between atoms: _277  and  _278
REMARK  112  A    between atoms: _277  and  _280
REMARK  113  A    between atoms: _280  and  _281
REMARK  114  A    between atoms: _284  and  _286
REMARK  115  A    between atoms: _286  and  _287
REMARK  116  A    between atoms: _286  and  _289
REMARK  117  A    between atoms: _289  and  _290
REMARK  118  A    between atoms: _293  and  _295
REMARK  119  A    between atoms: _295  and  _296
REMARK  120  A    between atoms: _295  and  _298
REMARK  121  A    between atoms: _298  and  _299
REMARK  122  A    between atoms: _299  and  _300
REMARK  123  A    between atoms: _300  and  _301
REMARK  124  A    between atoms: _301  and  _302
REMARK  125  A    between atoms: _306  and  _308
REMARK  126  A    between atoms: _308  and  _309
REMARK  127  A    between atoms: _308  and  _311
REMARK  128  A    between atoms: _311  and  _312
REMARK  129  A    between atoms: _315  and  _317
REMARK  130  A    between atoms: _317  and  _318
REMARK  131  A    between atoms: _317  and  _320
REMARK  132  A    between atoms: _320  and  _321
REMARK  133  A    between atoms: _321  and  _322
REMARK  134  A    between atoms: _327  and  _329
REMARK  135  A    between atoms: _329  and  _330
REMARK  136  A    between atoms: _329  and  _332
REMARK  137  A    between atoms: _332  and  _333
REMARK  138  A    between atoms: _338  and  _339
REMARK  139  A    between atoms: _341  and  _343
REMARK  140  A    between atoms: _343  and  _344
REMARK  141  A    between atoms: _343  and  _346
REMARK  142  A    between atoms: _346  and  _347
REMARK  143  A    between atoms: _350  and  _352
REMARK  144  A    between atoms: _352  and  _353
REMARK  145  A    between atoms: _352  and  _355
REMARK  146  A    between atoms: _357  and  _359
REMARK  147  A    between atoms: _359  and  _360
REMARK  148  A    between atoms: _363  and  _365
REMARK  149  A    between atoms: _365  and  _366
REMARK  150  A    between atoms: _365  and  _368
REMARK  151  A    between atoms: _368  and  _369
REMARK  152  A    between atoms: _369  and  _370
REMARK  153  A    between atoms: _370  and  _371
REMARK  154  A    between atoms: _371  and  _372
REMARK  155  A    between atoms: _376  and  _378
REMARK  156  A    between atoms: _378  and  _379
REMARK  157  A    between atoms: _378  and  _381
REMARK  158  A    between atoms: _381  and  _382
REMARK  159  A    between atoms: _385  and  _387
REMARK  160  A    between atoms: _387  and  _388
REMARK  161  A    between atoms: _391  and  _393
REMARK  162  A    between atoms: _393  and  _394
REMARK  163  A    between atoms: _393  and  _396
REMARK  164  A    between atoms: _396  and  _397
REMARK  165  A    between atoms: _397  and  _511
REMARK  166  A    between atoms: _398  and  _400
REMARK  167  A    between atoms: _400  and  _401
REMARK  168  A    between atoms: _400  and  _403
REMARK  169  A    between atoms: _403  and  _404
REMARK  170  A    between atoms: _404  and  _405
REMARK  171  A    between atoms: _405  and  _406
REMARK  172  A    between atoms: _406  and  _407
REMARK  173  A    between atoms: _411  and  _413
REMARK  174  A    between atoms: _413  and  _414
REMARK  175  A    between atoms: _416  and  _418
REMARK  176  A    between atoms: _418  and  _419
REMARK  177  A    between atoms: _418  and  _421
REMARK  178  A    between atoms: _421  and  _422
REMARK  179  A    between atoms: _425  and  _427
REMARK  180  A    between atoms: _427  and  _428
REMARK  181  A    between atoms: _427  and  _430
REMARK  182  A    between atoms: _430  and  _431
REMARK  183  A    between atoms: _433  and  _435
REMARK  184  A    between atoms: _435  and  _436
REMARK  185  A    between atoms: _438  and  _440
REMARK  186  A    between atoms: _440  and  _441
REMARK  187  A    between atoms: _443  and  _445
REMARK  188  A    between atoms: _445  and  _446
REMARK  189  A    between atoms: _445  and  _448
REMARK  190  A    between atoms: _448  and  _449
REMARK  191  A    between atoms: _452  and  _454
REMARK  192  A    between atoms: _454  and  _455
REMARK  193  A    between atoms: _454  and  _457
REMARK  194  A    between atoms: _457  and  _458
REMARK  195  A    between atoms: _461  and  _463
REMARK  196  A    between atoms: _463  and  _464
REMARK  197  A    between atoms: _463  and  _466
REMARK  198  A    between atoms: _466  and  _467
REMARK  199  A    between atoms: _469  and  _471
REMARK  200  A    between atoms: _471  and  _472
REMARK  201  A    between atoms: _471  and  _474
REMARK  202  A    between atoms: _474  and  _475
REMARK  203  A    between atoms: _485  and  _487
REMARK  204  A    between atoms: _487  and  _488
REMARK  205  A    between atoms: _490  and  _492
REMARK  206  A    between atoms: _492  and  _493
REMARK  207  A    between atoms: _492  and  _495
REMARK  208  A    between atoms: _495  and  _496
REMARK  209  A    between atoms: _496  and  _497
REMARK  210  A    between atoms: _500  and  _502
REMARK  211  A    between atoms: _502  and  _503
REMARK  212  A    between atoms: _505  and  _507
REMARK  213  A    between atoms: _507  and  _508
REMARK  214  A    between atoms: _507  and  _510
REMARK  215  A    between atoms: _510  and  _511
REMARK  216  A    between atoms: _512  and  _514
REMARK  217  A    between atoms: _514  and  _515
REMARK  218  A    between atoms: _518  and  _520
REMARK  219  A    between atoms: _520  and  _521
REMARK  220  A    between atoms: _520  and  _523
REMARK  221  A    between atoms: _523  and  _524
REMARK  222  A    between atoms: _524  and  _525
REMARK  223  A    between atoms: _530  and  _532
REMARK  224  A    between atoms: _532  and  _533
REMARK  225  A    between atoms: _532  and  _535
REMARK  226  A    between atoms: _535  and  _536
REMARK  227  A    between atoms: _536  and  _537
REMARK  228  A    between atoms: _537  and  _538
REMARK  229  A    between atoms: _548  and  _549
REMARK  230  A    between atoms: _554  and  _556
REMARK  231  A    between atoms: _556  and  _557
REMARK  232  A    between atoms: _559  and  _561
REMARK  233  A    between atoms: _561  and  _562
REMARK  234  A    between atoms: _561  and  _564
REMARK  235  A    between atoms: _567  and  _569
REMARK  236  A    between atoms: _569  and  _570
REMARK  237  A    between atoms: _569  and  _572
REMARK  238  A    between atoms: _572  and  _573
REMARK  239  A    between atoms: _578  and  _579
REMARK  240  A    between atoms: _581  and  _583
REMARK  241  A    between atoms: _583  and  _584
REMARK  242  A    between atoms: _583  and  _586
REMARK  243  A    between atoms: _586  and  _587
REMARK                            x       y       z     vdW  Elec       q    Type
REMARK                         _______ _______ _______ _____ _____    ______ ____
ROOT
ATOM      1  O   HOH     1      50.885 -18.839  32.571  0.00  0.00    +0.000 OA
ENDROOT
TORSDOF 0
REMARK  Name = ../refined-set-2016/4x6o/4x6o_pocket.pdb
REMARK  243 active torsions:
REMARK  status: ('A' for Active; 'I' for Inactive)
REMARK    1  A    between atoms: _1  and  _5
REMARK    2  A    between atoms: _5  and  _6
REMARK    3  A    between atoms: _5  and  _8
REMARK    4  A    between atoms: _8  and  _9
REMARK    5  A    between atoms: _12  and  _14
REMARK    6  A    between atoms: _14  and  _15
REMARK    7  A    between atoms: _14  and  _17
REMARK    8  A    between atoms: _20  and  _22
REMARK    9  A    between atoms: _22  and  _23
REMARK   10  A    between atoms: _22  and  _25
REMARK   11  A    between atoms: _25  and  _26
REMARK   12  A    between atoms: _29  and  _31
REMARK   13  A    between atoms: _31  and  _32
REMARK   14  A    between atoms: _31  and  _34
REMARK   15  A    between atoms: _34  and  _35
REMARK   16  A    between atoms: _38  and  _40
REMARK   17  A    between atoms: _40  and  _41
REMARK   18  A    between atoms: _40  and  _43
REMARK   19  A    between atoms: _43  and  _44
REMARK   20  A    between atoms: _49  and  _51
REMARK   21  A    between atoms: _51  and  _52
REMARK   22  A    between atoms: _51  and  _54
REMARK   23  A    between atoms: _54  and  _55
REMARK   24  A    between atoms: _58  and  _60
REMARK   25  A    between atoms: _60  and  _61
REMARK   26  A    between atoms: _60  and  _63
REMARK   27  A    between atoms: _63  and  _64
REMARK   28  A    between atoms: _67  and  _69
REMARK   29  A    between atoms: _69  and  _70
REMARK   30  A    between atoms: _69  and  _72
REMARK   31  A    between atoms: _72  and  _73
REMARK   32  A    between atoms: _73  and  _74
REMARK   33  A    between atoms: _79  and  _81
REMARK   34  A    between atoms: _81  and  _82
REMARK   35  A    between atoms: _81  and  _84
REMARK   36  A    between atoms: _84  and  _85
REMARK   37  A    between atoms: _85  and  _86
REMARK   38  A    between atoms: _86  and  _87
REMARK   39  A    between atoms: _96  and  _98
REMARK   40  A    between atoms: _98  and  _99
REMARK   41  A    between atoms: _98  and  _101
REMARK   42  A    between atoms: _101  and  _102
REMARK   43  A    between atoms: _107  and  _109
REMARK   44  A    between atoms: _109  and  _110
REMARK   45  A    between atoms: _109  and  _112
REMARK   46  A    between atoms: _112  and  _113
REMARK   47  A    between atoms: _116  and  _118
REMARK   48  A    between atoms: _118  and  _119
REMARK   49  A    between atoms: _118  and  _121
REMARK   50  A    between atoms: _121  and  _122
REMARK   51  A    between atoms: _122  and  _157
REMARK   52  A    between atoms: _123  and  _125
REMARK   53  A    between atoms: _125  and  _126
REMARK   54  A    between atoms: _128  and  _130
REMARK   55  A    between atoms: _130  and  _131
REMARK   56  A    between atoms: _134  and  _136
REMARK   57  A    between atoms: _136  and  _137
REMARK   58  A    between atoms: _140  and  _142
REMARK   59  A    between atoms: _142  and  _143
REMARK   60  A    between atoms: _142  and  _145
REMARK   61  A    between atoms: _145  and  _146
REMARK   62  A    between atoms: _151  and  _153
REMARK   63  A    between atoms: _153  and  _154
REMARK   64  A    between atoms: _153  and  _156
REMARK   65  A    between atoms: _156  and  _157
REMARK   66  A    between atoms: _158  and  _160
REMARK   67  A    between atoms: _160  and  _161
REMARK   68  A    between atoms: _160  and  _163
REMARK   69  A    between atoms: _163  and  _164
REMARK   70  A    between atoms: _170  and  _172
REMARK   71  A    between atoms: _172  and  _173
REMARK   72  A    between atoms: _172  and  _175
REMARK   73  A    between atoms: _175  and  _176
REMARK   74  A    between atoms: _181  and  _182
REMARK   75  A    between atoms: _184  and  _186
REMARK   76  A    between atoms: _186  and  _187
REMARK   77  A    between atoms: _186  and  _189
REMARK   78  A    between atoms: _192  and  _194
REMARK   79  A    between atoms: _194  and  _195
REMARK   80  A    between atoms: _194  and  _197
REMARK   81  A    between atoms: _197  and  _198
REMARK   82  A    between atoms: _198  and  _199
REMARK   83  A    between atoms: _204  and  _206
REMARK   84  A    between atoms: _206  and  _207
REMARK   85  A    between atoms: _210  and  _212
REMARK   86  A    between atoms: _212  and  _213
REMARK   87  A    between atoms: _212  and  _215
REMARK   88  A    between atoms: _215  and  _216
REMARK   89  A    between atoms: _219  and  _221
REMARK   90  A    between atoms: _221  and  _222
REMARK   91  A    between atoms: _221  and  _224
REMARK   92  A    between atoms: _227  and  _229
REMARK   93  A    between atoms: _229  and  _230
REMARK   94  A    between atoms: _229  and  _232
REMARK   95  A    between atoms: _232  and  _233
REMARK   96  A    between atoms: _243  and  _245
REMARK   97  A    between atoms: _245  and  _246
REMARK   98  A    between atoms: _248  and  _250
REMARK   99  A    between atoms: _250  and  _251
REMARK  100  A    between atoms: _250  and  _253
REMARK  101  A    between atoms: _253  and  _254
REMARK  102  A    between atoms: _259  and  _260
REMARK  103  A    between atoms: _262  and  _264
REMARK  104  A    between atoms: _264  and  _265
REMARK  105  A    between atoms: _264  and  _267
REMARK  106  A    between atoms: _267  and  _268
REMARK  107  A    between atoms: _268  and  _269
REMARK  108  A    between atoms: _269  and  _270
REMARK  109  A    between atoms: _270  and  _271
REMARK  110  A    between atoms: _275  and  _277
REMARK  111  A    between atoms: _277  and  _278
REMARK  112  A    between atoms: _277  and  _280
REMARK  113  A    between atoms: _280  and  _281
REMARK  114  A    between atoms: _284  and  _286
REMARK  115  A    between atoms: _286  and  _287
REMARK  116  A    between atoms: _286  and  _289
REMARK  117  A    between atoms: _289  and  _290
REMARK  118  A    between atoms: _293  and  _295
REMARK  119  A    between atoms: _295  and  _296
REMARK  120  A    between atoms: _295  and  _298
REMARK  121  A    between atoms: _298  and  _299
REMARK  122  A    between atoms: _299  and  _300
REMARK  123  A    between atoms: _300  and  _301
REMARK  124  A    between atoms: _301  and  _302
REMARK  125  A    between atoms: _306  and  _308
REMARK  126  A    between atoms: _308  and  _309
REMARK  127  A    between atoms: _308  and  _311
REMARK  128  A    between atoms: _311  and  _312
REMARK  129  A    between atoms: _315  and  _317
REMARK  130  A    between atoms: _317  and  _318
REMARK  131  A    between atoms: _317  and  _320
REMARK  132  A    between atoms: _320  and  _321
REMARK  133  A    between atoms: _321  and  _322
REMARK  134  A    between atoms: _327  and  _329
REMARK  135  A    between atoms: _329  and  _330
REMARK  136  A    between atoms: _329  and  _332
REMARK  137  A    between atoms: _332  and  _333
REMARK  138  A    between atoms: _338  and  _339
REMARK  139  A    between atoms: _341  and  _343
REMARK  140  A    between atoms: _343  and  _344
REMARK  141  A    between atoms: _343  and  _346
REMARK  142  A    between atoms: _346  and  _347
REMARK  143  A    between atoms: _350  and  _352
REMARK  144  A    between atoms: _352  and  _353
REMARK  145  A    between atoms: _352  and  _355
REMARK  146  A    between atoms: _357  and  _359
REMARK  147  A    between atoms: _359  and  _360
REMARK  148  A    between atoms: _363  and  _365
REMARK  149  A    between atoms: _365  and  _366
REMARK  150  A    between atoms: _365  and  _368
REMARK  151  A    between atoms: _368  and  _369
REMARK  152  A    between atoms: _369  and  _370
REMARK  153  A    between atoms: _370  and  _371
REMARK  154  A    between atoms: _371  and  _372
REMARK  155  A    between atoms: _376  and  _378
REMARK  156  A    between atoms: _378  and  _379
REMARK  157  A    between atoms: _378  and  _381
REMARK  158  A    between atoms: _381  and  _382
REMARK  159  A    between atoms: _385  and  _387
REMARK  160  A    between atoms: _387  and  _388
REMARK  161  A    between atoms: _391  and  _393
REMARK  162  A    between atoms: _393  and  _394
REMARK  163  A    between atoms: _393  and  _396
REMARK  164  A    between atoms: _396  and  _397
REMARK  165  A    between atoms: _397  and  _511
REMARK  166  A    between atoms: _398  and  _400
REMARK  167  A    between atoms: _400  and  _401
REMARK  168  A    between atoms: _400  and  _403
REMARK  169  A    between atoms: _403  and  _404
REMARK  170  A    between atoms: _404  and  _405
REMARK  171  A    between atoms: _405  and  _406
REMARK  172  A    between atoms: _406  and  _407
REMARK  173  A    between atoms: _411  and  _413
REMARK  174  A    between atoms: _413  and  _414
REMARK  175  A    between atoms: _416  and  _418
REMARK  176  A    between atoms: _418  and  _419
REMARK  177  A    between atoms: _418  and  _421
REMARK  178  A    between atoms: _421  and  _422
REMARK  179  A    between atoms: _425  and  _427
REMARK  180  A    between atoms: _427  and  _428
REMARK  181  A    between atoms: _427  and  _430
REMARK  182  A    between atoms: _430  and  _431
REMARK  183  A    between atoms: _433  and  _435
REMARK  184  A    between atoms: _435  and  _436
REMARK  185  A    between atoms: _438  and  _440
REMARK  186  A    between atoms: _440  and  _441
REMARK  187  A    between atoms: _443  and  _445
REMARK  188  A    between atoms: _445  and  _446
REMARK  189  A    between atoms: _445  and  _448
REMARK  190  A    between atoms: _448  and  _449
REMARK  191  A    between atoms: _452  and  _454
REMARK  192  A    between atoms: _454  and  _455
REMARK  193  A    between atoms: _454  and  _457
REMARK  194  A    between atoms: _457  and  _458
REMARK  195  A    between atoms: _461  and  _463
REMARK  196  A    between atoms: _463  and  _464
REMARK  197  A    between atoms: _463  and  _466
REMARK  198  A    between atoms: _466  and  _467
REMARK  199  A    between atoms: _469  and  _471
REMARK  200  A    between atoms: _471  and  _472
REMARK  201  A    between atoms: _471  and  _474
REMARK  202  A    between atoms: _474  and  _475
REMARK  203  A    between atoms: _485  and  _487
REMARK  204  A    between atoms: _487  and  _488
REMARK  205  A    between atoms: _490  and  _492
REMARK  206  A    between atoms: _492  and  _493
REMARK  207  A    between atoms: _492  and  _495
REMARK  208  A    between atoms: _495  and  _496
REMARK  209  A    between atoms: _496  and  _497
REMARK  210  A    between atoms: _500  and  _502
REMARK  211  A    between atoms: _502  and  _503
REMARK  212  A    between atoms: _505  and  _507
REMARK  213  A    between atoms: _507  and  _508
REMARK  214  A    between atoms: _507  and  _510
REMARK  215  A    between atoms: _510  and  _511
REMARK  216  A    between atoms: _512  and  _514
REMARK  217  A    between atoms: _514  and  _515
REMARK  218  A    between atoms: _518  and  _520
REMARK  219  A    between atoms: _520  and  _521
REMARK  220  A    between atoms: _520  and  _523
REMARK  221  A    between atoms: _523  and  _524
REMARK  222  A    between atoms: _524  and  _525
REMARK  223  A    between atoms: _530  and  _532
REMARK  224  A    between atoms: _532  and  _533
REMARK  225  A    between atoms: _532  and  _535
REMARK  226  A    between atoms: _535  and  _536
REMARK  227  A    between atoms: _536  and  _537
REMARK  228  A    between atoms: _537  and  _538
REMARK  229  A    between atoms: _548  and  _549
REMARK  230  A    between atoms: _554  and  _556
REMARK  231  A    between atoms: _556  and  _557
REMARK  232  A    between atoms: _559  and  _561
REMARK  233  A    between atoms: _561  and  _562
REMARK  234  A    between atoms: _561  and  _564
REMARK  235  A    between atoms: _567  and  _569
REMARK  236  A    between atoms: _569  and  _570
REMARK  237  A    between atoms: _569  and  _572
REMARK  238  A    between atoms: _572  and  _573
REMARK  239  A    between atoms: _578  and  _579
REMARK  240  A    between atoms: _581  and  _583
REMARK  241  A    between atoms: _583  and  _584
REMARK  242  A    between atoms: _583  and  _586
REMARK  243  A    between atoms: _586  and  _587
REMARK                            x       y       z     vdW  Elec       q    Type
REMARK                         _______ _______ _______ _____ _____    ______ ____
ROOT
ATOM      1  O   HOH     1      34.617  -6.298  26.291  0.00  0.00    +0.000 OA
ENDROOT
TORSDOF 0
REMARK  Name = ../refined-set-2016/4x6o/4x6o_pocket.pdb
REMARK  243 active torsions:
REMARK  status: ('A' for Active; 'I' for Inactive)
REMARK    1  A    between atoms: _1  and  _5
REMARK    2  A    between atoms: _5  and  _6
REMARK    3  A    between atoms: _5  and  _8
REMARK    4  A    between atoms: _8  and  _9
REMARK    5  A    between atoms: _12  and  _14
REMARK    6  A    between atoms: _14  and  _15
REMARK    7  A    between atoms: _14  and  _17
REMARK    8  A    between atoms: _20  and  _22
REMARK    9  A    between atoms: _22  and  _23
REMARK   10  A    between atoms: _22  and  _25
REMARK   11  A    between atoms: _25  and  _26
REMARK   12  A    between atoms: _29  and  _31
REMARK   13  A    between atoms: _31  and  _32
REMARK   14  A    between atoms: _31  and  _34
REMARK   15  A    between atoms: _34  and  _35
REMARK   16  A    between atoms: _38  and  _40
REMARK   17  A    between atoms: _40  and  _41
REMARK   18  A    between atoms: _40  and  _43
REMARK   19  A    between atoms: _43  and  _44
REMARK   20  A    between atoms: _49  and  _51
REMARK   21  A    between atoms: _51  and  _52
REMARK   22  A    between atoms: _51  and  _54
REMARK   23  A    between atoms: _54  and  _55
REMARK   24  A    between atoms: _58  and  _60
REMARK   25  A    between atoms: _60  and  _61
REMARK   26  A    between atoms: _60  and  _63
REMARK   27  A    between atoms: _63  and  _64
REMARK   28  A    between atoms: _67  and  _69
REMARK   29  A    between atoms: _69  and  _70
REMARK   30  A    between atoms: _69  and  _72
REMARK   31  A    between atoms: _72  and  _73
REMARK   32  A    between atoms: _73  and  _74
REMARK   33  A    between atoms: _79  and  _81
REMARK   34  A    between atoms: _81  and  _82
REMARK   35  A    between atoms: _81  and  _84
REMARK   36  A    between atoms: _84  and  _85
REMARK   37  A    between atoms: _85  and  _86
REMARK   38  A    between atoms: _86  and  _87
REMARK   39  A    between atoms: _96  and  _98
REMARK   40  A    between atoms: _98  and  _99
REMARK   41  A    between atoms: _98  and  _101
REMARK   42  A    between atoms: _101  and  _102
REMARK   43  A    between atoms: _107  and  _109
REMARK   44  A    between atoms: _109  and  _110
REMARK   45  A    between atoms: _109  and  _112
REMARK   46  A    between atoms: _112  and  _113
REMARK   47  A    between atoms: _116  and  _118
REMARK   48  A    between atoms: _118  and  _119
REMARK   49  A    between atoms: _118  and  _121
REMARK   50  A    between atoms: _121  and  _122
REMARK   51  A    between atoms: _122  and  _157
REMARK   52  A    between atoms: _123  and  _125
REMARK   53  A    between atoms: _125  and  _126
REMARK   54  A    between atoms: _128  and  _130
REMARK   55  A    between atoms: _130  and  _131
REMARK   56  A    between atoms: _134  and  _136
REMARK   57  A    between atoms: _136  and  _137
REMARK   58  A    between atoms: _140  and  _142
REMARK   59  A    between atoms: _142  and  _143
REMARK   60  A    between atoms: _142  and  _145
REMARK   61  A    between atoms: _145  and  _146
REMARK   62  A    between atoms: _151  and  _153
REMARK   63  A    between atoms: _153  and  _154
REMARK   64  A    between atoms: _153  and  _156
REMARK   65  A    between atoms: _156  and  _157
REMARK   66  A    between atoms: _158  and  _160
REMARK   67  A    between atoms: _160  and  _161
REMARK   68  A    between atoms: _160  and  _163
REMARK   69  A    between atoms: _163  and  _164
REMARK   70  A    between atoms: _170  and  _172
REMARK   71  A    between atoms: _172  and  _173
REMARK   72  A    between atoms: _172  and  _175
REMARK   73  A    between atoms: _175  and  _176
REMARK   74  A    between atoms: _181  and  _182
REMARK   75  A    between atoms: _184  and  _186
REMARK   76  A    between atoms: _186  and  _187
REMARK   77  A    between atoms: _186  and  _189
REMARK   78  A    between atoms: _192  and  _194
REMARK   79  A    between atoms: _194  and  _195
REMARK   80  A    between atoms: _194  and  _197
REMARK   81  A    between atoms: _197  and  _198
REMARK   82  A    between atoms: _198  and  _199
REMARK   83  A    between atoms: _204  and  _206
REMARK   84  A    between atoms: _206  and  _207
REMARK   85  A    between atoms: _210  and  _212
REMARK   86  A    between atoms: _212  and  _213
REMARK   87  A    between atoms: _212  and  _215
REMARK   88  A    between atoms: _215  and  _216
REMARK   89  A    between atoms: _219  and  _221
REMARK   90  A    between atoms: _221  and  _222
REMARK   91  A    between atoms: _221  and  _224
REMARK   92  A    between atoms: _227  and  _229
REMARK   93  A    between atoms: _229  and  _230
REMARK   94  A    between atoms: _229  and  _232
REMARK   95  A    between atoms: _232  and  _233
REMARK   96  A    between atoms: _243  and  _245
REMARK   97  A    between atoms: _245  and  _246
REMARK   98  A    between atoms: _248  and  _250
REMARK   99  A    between atoms: _250  and  _251
REMARK  100  A    between atoms: _250  and  _253
REMARK  101  A    between atoms: _253  and  _254
REMARK  102  A    between atoms: _259  and  _260
REMARK  103  A    between atoms: _262  and  _264
REMARK  104  A    between atoms: _264  and  _265
REMARK  105  A    between atoms: _264  and  _267
REMARK  106  A    between atoms: _267  and  _268
REMARK  107  A    between atoms: _268  and  _269
REMARK  108  A    between atoms: _269  and  _270
REMARK  109  A    between atoms: _270  and  _271
REMARK  110  A    between atoms: _275  and  _277
REMARK  111  A    between atoms: _277  and  _278
REMARK  112  A    between atoms: _277  and  _280
REMARK  113  A    between atoms: _280  and  _281
REMARK  114  A    between atoms: _284  and  _286
REMARK  115  A    between atoms: _286  and  _287
REMARK  116  A    between atoms: _286  and  _289
REMARK  117  A    between atoms: _289  and  _290
REMARK  118  A    between atoms: _293  and  _295
REMARK  119  A    between atoms: _295  and  _296
REMARK  120  A    between atoms: _295  and  _298
REMARK  121  A    between atoms: _298  and  _299
REMARK  122  A    between atoms: _299  and  _300
REMARK  123  A    between atoms: _300  and  _301
REMARK  124  A    between atoms: _301  and  _302
REMARK  125  A    between atoms: _306  and  _308
REMARK  126  A    between atoms: _308  and  _309
REMARK  127  A    between atoms: _308  and  _311
REMARK  128  A    between atoms: _311  and  _312
REMARK  129  A    between atoms: _315  and  _317
REMARK  130  A    between atoms: _317  and  _318
REMARK  131  A    between atoms: _317  and  _320
REMARK  132  A    between atoms: _320  and  _321
REMARK  133  A    between atoms: _321  and  _322
REMARK  134  A    between atoms: _327  and  _329
REMARK  135  A    between atoms: _329  and  _330
REMARK  136  A    between atoms: _329  and  _332
REMARK  137  A    between atoms: _332  and  _333
REMARK  138  A    between atoms: _338  and  _339
REMARK  139  A    between atoms: _341  and  _343
REMARK  140  A    between atoms: _343  and  _344
REMARK  141  A    between atoms: _343  and  _346
REMARK  142  A    between atoms: _346  and  _347
REMARK  143  A    between atoms: _350  and  _352
REMARK  144  A    between atoms: _352  and  _353
REMARK  145  A    between atoms: _352  and  _355
REMARK  146  A    between atoms: _357  and  _359
REMARK  147  A    between atoms: _359  and  _360
REMARK  148  A    between atoms: _363  and  _365
REMARK  149  A    between atoms: _365  and  _366
REMARK  150  A    between atoms: _365  and  _368
REMARK  151  A    between atoms: _368  and  _369
REMARK  152  A    between atoms: _369  and  _370
REMARK  153  A    between atoms: _370  and  _371
REMARK  154  A    between atoms: _371  and  _372
REMARK  155  A    between atoms: _376  and  _378
REMARK  156  A    between atoms: _378  and  _379
REMARK  157  A    between atoms: _378  and  _381
REMARK  158  A    between atoms: _381  and  _382
REMARK  159  A    between atoms: _385  and  _387
REMARK  160  A    between atoms: _387  and  _388
REMARK  161  A    between atoms: _391  and  _393
REMARK  162  A    between atoms: _393  and  _394
REMARK  163  A    between atoms: _393  and  _396
REMARK  164  A    between atoms: _396  and  _397
REMARK  165  A    between atoms: _397  and  _511
REMARK  166  A    between atoms: _398  and  _400
REMARK  167  A    between atoms: _400  and  _401
REMARK  168  A    between atoms: _400  and  _403
REMARK  169  A    between atoms: _403  and  _404
REMARK  170  A    between atoms: _404  and  _405
REMARK  171  A    between atoms: _405  and  _406
REMARK  172  A    between atoms: _406  and  _407
REMARK  173  A    between atoms: _411  and  _413
REMARK  174  A    between atoms: _413  and  _414
REMARK  175  A    between atoms: _416  and  _418
REMARK  176  A    between atoms: _418  and  _419
REMARK  177  A    between atoms: _418  and  _421
REMARK  178  A    between atoms: _421  and  _422
REMARK  179  A    between atoms: _425  and  _427
REMARK  180  A    between atoms: _427  and  _428
REMARK  181  A    between atoms: _427  and  _430
REMARK  182  A    between atoms: _430  and  _431
REMARK  183  A    between atoms: _433  and  _435
REMARK  184  A    between atoms: _435  and  _436
REMARK  185  A    between atoms: _438  and  _440
REMARK  186  A    between atoms: _440  and  _441
REMARK  187  A    between atoms: _443  and  _445
REMARK  188  A    between atoms: _445  and  _446
REMARK  189  A    between atoms: _445  and  _448
REMARK  190  A    between atoms: _448  and  _449
REMARK  191  A    between atoms: _452  and  _454
REMARK  192  A    between atoms: _454  and  _455
REMARK  193  A    between atoms: _454  and  _457
REMARK  194  A    between atoms: _457  and  _458
REMARK  195  A    between atoms: _461  and  _463
REMARK  196  A    between atoms: _463  and  _464
REMARK  197  A    between atoms: _463  and  _466
REMARK  198  A    between atoms: _466  and  _467
REMARK  199  A    between atoms: _469  and  _471
REMARK  200  A    between atoms: _471  and  _472
REMARK  201  A    between atoms: _471  and  _474
REMARK  202  A    between atoms: _474  and  _475
REMARK  203  A    between atoms: _485  and  _487
REMARK  204  A    between atoms: _487  and  _488
REMARK  205  A    between atoms: _490  and  _492
REMARK  206  A    between atoms: _492  and  _493
REMARK  207  A    between atoms: _492  and  _495
REMARK  208  A    between atoms: _495  and  _496
REMARK  209  A    between atoms: _496  and  _497
REMARK  210  A    between atoms: _500  and  _502
REMARK  211  A    between atoms: _502  and  _503
REMARK  212  A    between atoms: _505  and  _507
REMARK  213  A    between atoms: _507  and  _508
REMARK  214  A    between atoms: _507  and  _510
REMARK  215  A    between atoms: _510  and  _511
REMARK  216  A    between atoms: _512  and  _514
REMARK  217  A    between atoms: _514  and  _515
REMARK  218  A    between atoms: _518  and  _520
REMARK  219  A    between atoms: _520  and  _521
REMARK  220  A    between atoms: _520  and  _523
REMARK  221  A    between atoms: _523  and  _524
REMARK  222  A    between atoms: _524  and  _525
REMARK  223  A    between atoms: _530  and  _532
REMARK  224  A    between atoms: _532  and  _533
REMARK  225  A    between atoms: _532  and  _535
REMARK  226  A    between atoms: _535  and  _536
REMARK  227  A    between atoms: _536  and  _537
REMARK  228  A    between atoms: _537  and  _538
REMARK  229  A    between atoms: _548  and  _549
REMARK  230  A    between atoms: _554  and  _556
REMARK  231  A    between atoms: _556  and  _557
REMARK  232  A    between atoms: _559  and  _561
REMARK  233  A    between atoms: _561  and  _562
REMARK  234  A    between atoms: _561  and  _564
REMARK  235  A    between atoms: _567  and  _569
REMARK  236  A    between atoms: _569  and  _570
REMARK  237  A    between atoms: _569  and  _572
REMARK  238  A    between atoms: _572  and  _573
REMARK  239  A    between atoms: _578  and  _579
REMARK  240  A    between atoms: _581  and  _583
REMARK  241  A    between atoms: _583  and  _584
REMARK  242  A    between atoms: _583  and  _586
REMARK  243  A    between atoms: _586  and  _587
REMARK                            x       y       z     vdW  Elec       q    Type
REMARK                         _______ _______ _______ _____ _____    ______ ____
ROOT
ATOM      1  O   HOH     1      34.936 -10.771  25.493  0.00  0.00    +0.000 OA
ENDROOT
TORSDOF 0
REMARK  Name = ../refined-set-2016/4x6o/4x6o_pocket.pdb
REMARK  243 active torsions:
REMARK  status: ('A' for Active; 'I' for Inactive)
REMARK    1  A    between atoms: _1  and  _5
REMARK    2  A    between atoms: _5  and  _6
REMARK    3  A    between atoms: _5  and  _8
REMARK    4  A    between atoms: _8  and  _9
REMARK    5  A    between atoms: _12  and  _14
REMARK    6  A    between atoms: _14  and  _15
REMARK    7  A    between atoms: _14  and  _17
REMARK    8  A    between atoms: _20  and  _22
REMARK    9  A    between atoms: _22  and  _23
REMARK   10  A    between atoms: _22  and  _25
REMARK   11  A    between atoms: _25  and  _26
REMARK   12  A    between atoms: _29  and  _31
REMARK   13  A    between atoms: _31  and  _32
REMARK   14  A    between atoms: _31  and  _34
REMARK   15  A    between atoms: _34  and  _35
REMARK   16  A    between atoms: _38  and  _40
REMARK   17  A    between atoms: _40  and  _41
REMARK   18  A    between atoms: _40  and  _43
REMARK   19  A    between atoms: _43  and  _44
REMARK   20  A    between atoms: _49  and  _51
REMARK   21  A    between atoms: _51  and  _52
REMARK   22  A    between atoms: _51  and  _54
REMARK   23  A    between atoms: _54  and  _55
REMARK   24  A    between atoms: _58  and  _60
REMARK   25  A    between atoms: _60  and  _61
REMARK   26  A    between atoms: _60  and  _63
REMARK   27  A    between atoms: _63  and  _64
REMARK   28  A    between atoms: _67  and  _69
REMARK   29  A    between atoms: _69  and  _70
REMARK   30  A    between atoms: _69  and  _72
REMARK   31  A    between atoms: _72  and  _73
REMARK   32  A    between atoms: _73  and  _74
REMARK   33  A    between atoms: _79  and  _81
REMARK   34  A    between atoms: _81  and  _82
REMARK   35  A    between atoms: _81  and  _84
REMARK   36  A    between atoms: _84  and  _85
REMARK   37  A    between atoms: _85  and  _86
REMARK   38  A    between atoms: _86  and  _87
REMARK   39  A    between atoms: _96  and  _98
REMARK   40  A    between atoms: _98  and  _99
REMARK   41  A    between atoms: _98  and  _101
REMARK   42  A    between atoms: _101  and  _102
REMARK   43  A    between atoms: _107  and  _109
REMARK   44  A    between atoms: _109  and  _110
REMARK   45  A    between atoms: _109  and  _112
REMARK   46  A    between atoms: _112  and  _113
REMARK   47  A    between atoms: _116  and  _118
REMARK   48  A    between atoms: _118  and  _119
REMARK   49  A    between atoms: _118  and  _121
REMARK   50  A    between atoms: _121  and  _122
REMARK   51  A    between atoms: _122  and  _157
REMARK   52  A    between atoms: _123  and  _125
REMARK   53  A    between atoms: _125  and  _126
REMARK   54  A    between atoms: _128  and  _130
REMARK   55  A    between atoms: _130  and  _131
REMARK   56  A    between atoms: _134  and  _136
REMARK   57  A    between atoms: _136  and  _137
REMARK   58  A    between atoms: _140  and  _142
REMARK   59  A    between atoms: _142  and  _143
REMARK   60  A    between atoms: _142  and  _145
REMARK   61  A    between atoms: _145  and  _146
REMARK   62  A    between atoms: _151  and  _153
REMARK   63  A    between atoms: _153  and  _154
REMARK   64  A    between atoms: _153  and  _156
REMARK   65  A    between atoms: _156  and  _157
REMARK   66  A    between atoms: _158  and  _160
REMARK   67  A    between atoms: _160  and  _161
REMARK   68  A    between atoms: _160  and  _163
REMARK   69  A    between atoms: _163  and  _164
REMARK   70  A    between atoms: _170  and  _172
REMARK   71  A    between atoms: _172  and  _173
REMARK   72  A    between atoms: _172  and  _175
REMARK   73  A    between atoms: _175  and  _176
REMARK   74  A    between atoms: _181  and  _182
REMARK   75  A    between atoms: _184  and  _186
REMARK   76  A    between atoms: _186  and  _187
REMARK   77  A    between atoms: _186  and  _189
REMARK   78  A    between atoms: _192  and  _194
REMARK   79  A    between atoms: _194  and  _195
REMARK   80  A    between atoms: _194  and  _197
REMARK   81  A    between atoms: _197  and  _198
REMARK   82  A    between atoms: _198  and  _199
REMARK   83  A    between atoms: _204  and  _206
REMARK   84  A    between atoms: _206  and  _207
REMARK   85  A    between atoms: _210  and  _212
REMARK   86  A    between atoms: _212  and  _213
REMARK   87  A    between atoms: _212  and  _215
REMARK   88  A    between atoms: _215  and  _216
REMARK   89  A    between atoms: _219  and  _221
REMARK   90  A    between atoms: _221  and  _222
REMARK   91  A    between atoms: _221  and  _224
REMARK   92  A    between atoms: _227  and  _229
REMARK   93  A    between atoms: _229  and  _230
REMARK   94  A    between atoms: _229  and  _232
REMARK   95  A    between atoms: _232  and  _233
REMARK   96  A    between atoms: _243  and  _245
REMARK   97  A    between atoms: _245  and  _246
REMARK   98  A    between atoms: _248  and  _250
REMARK   99  A    between atoms: _250  and  _251
REMARK  100  A    between atoms: _250  and  _253
REMARK  101  A    between atoms: _253  and  _254
REMARK  102  A    between atoms: _259  and  _260
REMARK  103  A    between atoms: _262  and  _264
REMARK  104  A    between atoms: _264  and  _265
REMARK  105  A    between atoms: _264  and  _267
REMARK  106  A    between atoms: _267  and  _268
REMARK  107  A    between atoms: _268  and  _269
REMARK  108  A    between atoms: _269  and  _270
REMARK  109  A    between atoms: _270  and  _271
REMARK  110  A    between atoms: _275  and  _277
REMARK  111  A    between atoms: _277  and  _278
REMARK  112  A    between atoms: _277  and  _280
REMARK  113  A    between atoms: _280  and  _281
REMARK  114  A    between atoms: _284  and  _286
REMARK  115  A    between atoms: _286  and  _287
REMARK  116  A    between atoms: _286  and  _289
REMARK  117  A    between atoms: _289  and  _290
REMARK  118  A    between atoms: _293  and  _295
REMARK  119  A    between atoms: _295  and  _296
REMARK  120  A    between atoms: _295  and  _298
REMARK  121  A    between atoms: _298  and  _299
REMARK  122  A    between atoms: _299  and  _300
REMARK  123  A    between atoms: _300  and  _301
REMARK  124  A    between atoms: _301  and  _302
REMARK  125  A    between atoms: _306  and  _308
REMARK  126  A    between atoms: _308  and  _309
REMARK  127  A    between atoms: _308  and  _311
REMARK  128  A    between atoms: _311  and  _312
REMARK  129  A    between atoms: _315  and  _317
REMARK  130  A    between atoms: _317  and  _318
REMARK  131  A    between atoms: _317  and  _320
REMARK  132  A    between atoms: _320  and  _321
REMARK  133  A    between atoms: _321  and  _322
REMARK  134  A    between atoms: _327  and  _329
REMARK  135  A    between atoms: _329  and  _330
REMARK  136  A    between atoms: _329  and  _332
REMARK  137  A    between atoms: _332  and  _333
REMARK  138  A    between atoms: _338  and  _339
REMARK  139  A    between atoms: _341  and  _343
REMARK  140  A    between atoms: _343  and  _344
REMARK  141  A    between atoms: _343  and  _346
REMARK  142  A    between atoms: _346  and  _347
REMARK  143  A    between atoms: _350  and  _352
REMARK  144  A    between atoms: _352  and  _353
REMARK  145  A    between atoms: _352  and  _355
REMARK  146  A    between atoms: _357  and  _359
REMARK  147  A    between atoms: _359  and  _360
REMARK  148  A    between atoms: _363  and  _365
REMARK  149  A    between atoms: _365  and  _366
REMARK  150  A    between atoms: _365  and  _368
REMARK  151  A    between atoms: _368  and  _369
REMARK  152  A    between atoms: _369  and  _370
REMARK  153  A    between atoms: _370  and  _371
REMARK  154  A    between atoms: _371  and  _372
REMARK  155  A    between atoms: _376  and  _378
REMARK  156  A    between atoms: _378  and  _379
REMARK  157  A    between atoms: _378  and  _381
REMARK  158  A    between atoms: _381  and  _382
REMARK  159  A    between atoms: _385  and  _387
REMARK  160  A    between atoms: _387  and  _388
REMARK  161  A    between atoms: _391  and  _393
REMARK  162  A    between atoms: _393  and  _394
REMARK  163  A    between atoms: _393  and  _396
REMARK  164  A    between atoms: _396  and  _397
REMARK  165  A    between atoms: _397  and  _511
REMARK  166  A    between atoms: _398  and  _400
REMARK  167  A    between atoms: _400  and  _401
REMARK  168  A    between atoms: _400  and  _403
REMARK  169  A    between atoms: _403  and  _404
REMARK  170  A    between atoms: _404  and  _405
REMARK  171  A    between atoms: _405  and  _406
REMARK  172  A    between atoms: _406  and  _407
REMARK  173  A    between atoms: _411  and  _413
REMARK  174  A    between atoms: _413  and  _414
REMARK  175  A    between atoms: _416  and  _418
REMARK  176  A    between atoms: _418  and  _419
REMARK  177  A    between atoms: _418  and  _421
REMARK  178  A    between atoms: _421  and  _422
REMARK  179  A    between atoms: _425  and  _427
REMARK  180  A    between atoms: _427  and  _428
REMARK  181  A    between atoms: _427  and  _430
REMARK  182  A    between atoms: _430  and  _431
REMARK  183  A    between atoms: _433  and  _435
REMARK  184  A    between atoms: _435  and  _436
REMARK  185  A    between atoms: _438  and  _440
REMARK  186  A    between atoms: _440  and  _441
REMARK  187  A    between atoms: _443  and  _445
REMARK  188  A    between atoms: _445  and  _446
REMARK  189  A    between atoms: _445  and  _448
REMARK  190  A    between atoms: _448  and  _449
REMARK  191  A    between atoms: _452  and  _454
REMARK  192  A    between atoms: _454  and  _455
REMARK  193  A    between atoms: _454  and  _457
REMARK  194  A    between atoms: _457  and  _458
REMARK  195  A    between atoms: _461  and  _463
REMARK  196  A    between atoms: _463  and  _464
REMARK  197  A    between atoms: _463  and  _466
REMARK  198  A    between atoms: _466  and  _467
REMARK  199  A    between atoms: _469  and  _471
REMARK  200  A    between atoms: _471  and  _472
REMARK  201  A    between atoms: _471  and  _474
REMARK  202  A    between atoms: _474  and  _475
REMARK  203  A    between atoms: _485  and  _487
REMARK  204  A    between atoms: _487  and  _488
REMARK  205  A    between atoms: _490  and  _492
REMARK  206  A    between atoms: _492  and  _493
REMARK  207  A    between atoms: _492  and  _495
REMARK  208  A    between atoms: _495  and  _496
REMARK  209  A    between atoms: _496  and  _497
REMARK  210  A    between atoms: _500  and  _502
REMARK  211  A    between atoms: _502  and  _503
REMARK  212  A    between atoms: _505  and  _507
REMARK  213  A    between atoms: _507  and  _508
REMARK  214  A    between atoms: _507  and  _510
REMARK  215  A    between atoms: _510  and  _511
REMARK  216  A    between atoms: _512  and  _514
REMARK  217  A    between atoms: _514  and  _515
REMARK  218  A    between atoms: _518  and  _520
REMARK  219  A    between atoms: _520  and  _521
REMARK  220  A    between atoms: _520  and  _523
REMARK  221  A    between atoms: _523  and  _524
REMARK  222  A    between atoms: _524  and  _525
REMARK  223  A    between atoms: _530  and  _532
REMARK  224  A    between atoms: _532  and  _533
REMARK  225  A    between atoms: _532  and  _535
REMARK  226  A    between atoms: _535  and  _536
REMARK  227  A    between atoms: _536  and  _537
REMARK  228  A    between atoms: _537  and  _538
REMARK  229  A    between atoms: _548  and  _549
REMARK  230  A    between atoms: _554  and  _556
REMARK  231  A    between atoms: _556  and  _557
REMARK  232  A    between atoms: _559  and  _561
REMARK  233  A    between atoms: _561  and  _562
REMARK  234  A    between atoms: _561  and  _564
REMARK  235  A    between atoms: _567  and  _569
REMARK  236  A    between atoms: _569  and  _570
REMARK  237  A    between atoms: _569  and  _572
REMARK  238  A    between atoms: _572  and  _573
REMARK  239  A    between atoms: _578  and  _579
REMARK  240  A    between atoms: _581  and  _583
REMARK  241  A    between atoms: _583  and  _584
REMARK  242  A    between atoms: _583  and  _586
REMARK  243  A    between atoms: _586  and  _587
REMARK                            x       y       z     vdW  Elec       q    Type
REMARK                         _______ _______ _______ _____ _____    ______ ____
ROOT
ATOM      1  O   HOH     1      49.859 -22.566  37.819  0.00  0.00    +0.000 OA
ENDROOT
TORSDOF 0
REMARK  Name = ../refined-set-2016/4x6o/4x6o_pocket.pdb
REMARK  243 active torsions:
REMARK  status: ('A' for Active; 'I' for Inactive)
REMARK    1  A    between atoms: _1  and  _5
REMARK    2  A    between atoms: _5  and  _6
REMARK    3  A    between atoms: _5  and  _8
REMARK    4  A    between atoms: _8  and  _9
REMARK    5  A    between atoms: _12  and  _14
REMARK    6  A    between atoms: _14  and  _15
REMARK    7  A    between atoms: _14  and  _17
REMARK    8  A    between atoms: _20  and  _22
REMARK    9  A    between atoms: _22  and  _23
REMARK   10  A    between atoms: _22  and  _25
REMARK   11  A    between atoms: _25  and  _26
REMARK   12  A    between atoms: _29  and  _31
REMARK   13  A    between atoms: _31  and  _32
REMARK   14  A    between atoms: _31  and  _34
REMARK   15  A    between atoms: _34  and  _35
REMARK   16  A    between atoms: _38  and  _40
REMARK   17  A    between atoms: _40  and  _41
REMARK   18  A    between atoms: _40  and  _43
REMARK   19  A    between atoms: _43  and  _44
REMARK   20  A    between atoms: _49  and  _51
REMARK   21  A    between atoms: _51  and  _52
REMARK   22  A    between atoms: _51  and  _54
REMARK   23  A    between atoms: _54  and  _55
REMARK   24  A    between atoms: _58  and  _60
REMARK   25  A    between atoms: _60  and  _61
REMARK   26  A    between atoms: _60  and  _63
REMARK   27  A    between atoms: _63  and  _64
REMARK   28  A    between atoms: _67  and  _69
REMARK   29  A    between atoms: _69  and  _70
REMARK   30  A    between atoms: _69  and  _72
REMARK   31  A    between atoms: _72  and  _73
REMARK   32  A    between atoms: _73  and  _74
REMARK   33  A    between atoms: _79  and  _81
REMARK   34  A    between atoms: _81  and  _82
REMARK   35  A    between atoms: _81  and  _84
REMARK   36  A    between atoms: _84  and  _85
REMARK   37  A    between atoms: _85  and  _86
REMARK   38  A    between atoms: _86  and  _87
REMARK   39  A    between atoms: _96  and  _98
REMARK   40  A    between atoms: _98  and  _99
REMARK   41  A    between atoms: _98  and  _101
REMARK   42  A    between atoms: _101  and  _102
REMARK   43  A    between atoms: _107  and  _109
REMARK   44  A    between atoms: _109  and  _110
REMARK   45  A    between atoms: _109  and  _112
REMARK   46  A    between atoms: _112  and  _113
REMARK   47  A    between atoms: _116  and  _118
REMARK   48  A    between atoms: _118  and  _119
REMARK   49  A    between atoms: _118  and  _121
REMARK   50  A    between atoms: _121  and  _122
REMARK   51  A    between atoms: _122  and  _157
REMARK   52  A    between atoms: _123  and  _125
REMARK   53  A    between atoms: _125  and  _126
REMARK   54  A    between atoms: _128  and  _130
REMARK   55  A    between atoms: _130  and  _131
REMARK   56  A    between atoms: _134  and  _136
REMARK   57  A    between atoms: _136  and  _137
REMARK   58  A    between atoms: _140  and  _142
REMARK   59  A    between atoms: _142  and  _143
REMARK   60  A    between atoms: _142  and  _145
REMARK   61  A    between atoms: _145  and  _146
REMARK   62  A    between atoms: _151  and  _153
REMARK   63  A    between atoms: _153  and  _154
REMARK   64  A    between atoms: _153  and  _156
REMARK   65  A    between atoms: _156  and  _157
REMARK   66  A    between atoms: _158  and  _160
REMARK   67  A    between atoms: _160  and  _161
REMARK   68  A    between atoms: _160  and  _163
REMARK   69  A    between atoms: _163  and  _164
REMARK   70  A    between atoms: _170  and  _172
REMARK   71  A    between atoms: _172  and  _173
REMARK   72  A    between atoms: _172  and  _175
REMARK   73  A    between atoms: _175  and  _176
REMARK   74  A    between atoms: _181  and  _182
REMARK   75  A    between atoms: _184  and  _186
REMARK   76  A    between atoms: _186  and  _187
REMARK   77  A    between atoms: _186  and  _189
REMARK   78  A    between atoms: _192  and  _194
REMARK   79  A    between atoms: _194  and  _195
REMARK   80  A    between atoms: _194  and  _197
REMARK   81  A    between atoms: _197  and  _198
REMARK   82  A    between atoms: _198  and  _199
REMARK   83  A    between atoms: _204  and  _206
REMARK   84  A    between atoms: _206  and  _207
REMARK   85  A    between atoms: _210  and  _212
REMARK   86  A    between atoms: _212  and  _213
REMARK   87  A    between atoms: _212  and  _215
REMARK   88  A    between atoms: _215  and  _216
REMARK   89  A    between atoms: _219  and  _221
REMARK   90  A    between atoms: _221  and  _222
REMARK   91  A    between atoms: _221  and  _224
REMARK   92  A    between atoms: _227  and  _229
REMARK   93  A    between atoms: _229  and  _230
REMARK   94  A    between atoms: _229  and  _232
REMARK   95  A    between atoms: _232  and  _233
REMARK   96  A    between atoms: _243  and  _245
REMARK   97  A    between atoms: _245  and  _246
REMARK   98  A    between atoms: _248  and  _250
REMARK   99  A    between atoms: _250  and  _251
REMARK  100  A    between atoms: _250  and  _253
REMARK  101  A    between atoms: _253  and  _254
REMARK  102  A    between atoms: _259  and  _260
REMARK  103  A    between atoms: _262  and  _264
REMARK  104  A    between atoms: _264  and  _265
REMARK  105  A    between atoms: _264  and  _267
REMARK  106  A    between atoms: _267  and  _268
REMARK  107  A    between atoms: _268  and  _269
REMARK  108  A    between atoms: _269  and  _270
REMARK  109  A    between atoms: _270  and  _271
REMARK  110  A    between atoms: _275  and  _277
REMARK  111  A    between atoms: _277  and  _278
REMARK  112  A    between atoms: _277  and  _280
REMARK  113  A    between atoms: _280  and  _281
REMARK  114  A    between atoms: _284  and  _286
REMARK  115  A    between atoms: _286  and  _287
REMARK  116  A    between atoms: _286  and  _289
REMARK  117  A    between atoms: _289  and  _290
REMARK  118  A    between atoms: _293  and  _295
REMARK  119  A    between atoms: _295  and  _296
REMARK  120  A    between atoms: _295  and  _298
REMARK  121  A    between atoms: _298  and  _299
REMARK  122  A    between atoms: _299  and  _300
REMARK  123  A    between atoms: _300  and  _301
REMARK  124  A    between atoms: _301  and  _302
REMARK  125  A    between atoms: _306  and  _308
REMARK  126  A    between atoms: _308  and  _309
REMARK  127  A    between atoms: _308  and  _311
REMARK  128  A    between atoms: _311  and  _312
REMARK  129  A    between atoms: _315  and  _317
REMARK  130  A    between atoms: _317  and  _318
REMARK  131  A    between atoms: _317  and  _320
REMARK  132  A    between atoms: _320  and  _321
REMARK  133  A    between atoms: _321  and  _322
REMARK  134  A    between atoms: _327  and  _329
REMARK  135  A    between atoms: _329  and  _330
REMARK  136  A    between atoms: _329  and  _332
REMARK  137  A    between atoms: _332  and  _333
REMARK  138  A    between atoms: _338  and  _339
REMARK  139  A    between atoms: _341  and  _343
REMARK  140  A    between atoms: _343  and  _344
REMARK  141  A    between atoms: _343  and  _346
REMARK  142  A    between atoms: _346  and  _347
REMARK  143  A    between atoms: _350  and  _352
REMARK  144  A    between atoms: _352  and  _353
REMARK  145  A    between atoms: _352  and  _355
REMARK  146  A    between atoms: _357  and  _359
REMARK  147  A    between atoms: _359  and  _360
REMARK  148  A    between atoms: _363  and  _365
REMARK  149  A    between atoms: _365  and  _366
REMARK  150  A    between atoms: _365  and  _368
REMARK  151  A    between atoms: _368  and  _369
REMARK  152  A    between atoms: _369  and  _370
REMARK  153  A    between atoms: _370  and  _371
REMARK  154  A    between atoms: _371  and  _372
REMARK  155  A    between atoms: _376  and  _378
REMARK  156  A    between atoms: _378  and  _379
REMARK  157  A    between atoms: _378  and  _381
REMARK  158  A    between atoms: _381  and  _382
REMARK  159  A    between atoms: _385  and  _387
REMARK  160  A    between atoms: _387  and  _388
REMARK  161  A    between atoms: _391  and  _393
REMARK  162  A    between atoms: _393  and  _394
REMARK  163  A    between atoms: _393  and  _396
REMARK  164  A    between atoms: _396  and  _397
REMARK  165  A    between atoms: _397  and  _511
REMARK  166  A    between atoms: _398  and  _400
REMARK  167  A    between atoms: _400  and  _401
REMARK  168  A    between atoms: _400  and  _403
REMARK  169  A    between atoms: _403  and  _404
REMARK  170  A    between atoms: _404  and  _405
REMARK  171  A    between atoms: _405  and  _406
REMARK  172  A    between atoms: _406  and  _407
REMARK  173  A    between atoms: _411  and  _413
REMARK  174  A    between atoms: _413  and  _414
REMARK  175  A    between atoms: _416  and  _418
REMARK  176  A    between atoms: _418  and  _419
REMARK  177  A    between atoms: _418  and  _421
REMARK  178  A    between atoms: _421  and  _422
REMARK  179  A    between atoms: _425  and  _427
REMARK  180  A    between atoms: _427  and  _428
REMARK  181  A    between atoms: _427  and  _430
REMARK  182  A    between atoms: _430  and  _431
REMARK  183  A    between atoms: _433  and  _435
REMARK  184  A    between atoms: _435  and  _436
REMARK  185  A    between atoms: _438  and  _440
REMARK  186  A    between atoms: _440  and  _441
REMARK  187  A    between atoms: _443  and  _445
REMARK  188  A    between atoms: _445  and  _446
REMARK  189  A    between atoms: _445  and  _448
REMARK  190  A    between atoms: _448  and  _449
REMARK  191  A    between atoms: _452  and  _454
REMARK  192  A    between atoms: _454  and  _455
REMARK  193  A    between atoms: _454  and  _457
REMARK  194  A    between atoms: _457  and  _458
REMARK  195  A    between atoms: _461  and  _463
REMARK  196  A    between atoms: _463  and  _464
REMARK  197  A    between atoms: _463  and  _466
REMARK  198  A    between atoms: _466  and  _467
REMARK  199  A    between atoms: _469  and  _471
REMARK  200  A    between atoms: _471  and  _472
REMARK  201  A    between atoms: _471  and  _474
REMARK  202  A    between atoms: _474  and  _475
REMARK  203  A    between atoms: _485  and  _487
REMARK  204  A    between atoms: _487  and  _488
REMARK  205  A    between atoms: _490  and  _492
REMARK  206  A    between atoms: _492  and  _493
REMARK  207  A    between atoms: _492  and  _495
REMARK  208  A    between atoms: _495  and  _496
REMARK  209  A    between atoms: _496  and  _497
REMARK  210  A    between atoms: _500  and  _502
REMARK  211  A    between atoms: _502  and  _503
REMARK  212  A    between atoms: _505  and  _507
REMARK  213  A    between atoms: _507  and  _508
REMARK  214  A    between atoms: _507  and  _510
REMARK  215  A    between atoms: _510  and  _511
REMARK  216  A    between atoms: _512  and  _514
REMARK  217  A    between atoms: _514  and  _515
REMARK  218  A    between atoms: _518  and  _520
REMARK  219  A    between atoms: _520  and  _521
REMARK  220  A    between atoms: _520  and  _523
REMARK  221  A    between atoms: _523  and  _524
REMARK  222  A    between atoms: _524  and  _525
REMARK  223  A    between atoms: _530  and  _532
REMARK  224  A    between atoms: _532  and  _533
REMARK  225  A    between atoms: _532  and  _535
REMARK  226  A    between atoms: _535  and  _536
REMARK  227  A    between atoms: _536  and  _537
REMARK  228  A    between atoms: _537  and  _538
REMARK  229  A    between atoms: _548  and  _549
REMARK  230  A    between atoms: _554  and  _556
REMARK  231  A    between atoms: _556  and  _557
REMARK  232  A    between atoms: _559  and  _561
REMARK  233  A    between atoms: _561  and  _562
REMARK  234  A    between atoms: _561  and  _564
REMARK  235  A    between atoms: _567  and  _569
REMARK  236  A    between atoms: _569  and  _570
REMARK  237  A    between atoms: _569  and  _572
REMARK  238  A    between atoms: _572  and  _573
REMARK  239  A    between atoms: _578  and  _579
REMARK  240  A    between atoms: _581  and  _583
REMARK  241  A    between atoms: _583  and  _584
REMARK  242  A    between atoms: _583  and  _586
REMARK  243  A    between atoms: _586  and  _587
REMARK                            x       y       z     vdW  Elec       q    Type
REMARK                         _______ _______ _______ _____ _____    ______ ____
ROOT
ATOM      1  O   HOH     1      38.365 -17.309  37.695  0.00  0.00    +0.000 OA
ENDROOT
TORSDOF 0
REMARK  Name = ../refined-set-2016/4x6o/4x6o_pocket.pdb
REMARK  243 active torsions:
REMARK  status: ('A' for Active; 'I' for Inactive)
REMARK    1  A    between atoms: _1  and  _5
REMARK    2  A    between atoms: _5  and  _6
REMARK    3  A    between atoms: _5  and  _8
REMARK    4  A    between atoms: _8  and  _9
REMARK    5  A    between atoms: _12  and  _14
REMARK    6  A    between atoms: _14  and  _15
REMARK    7  A    between atoms: _14  and  _17
REMARK    8  A    between atoms: _20  and  _22
REMARK    9  A    between atoms: _22  and  _23
REMARK   10  A    between atoms: _22  and  _25
REMARK   11  A    between atoms: _25  and  _26
REMARK   12  A    between atoms: _29  and  _31
REMARK   13  A    between atoms: _31  and  _32
REMARK   14  A    between atoms: _31  and  _34
REMARK   15  A    between atoms: _34  and  _35
REMARK   16  A    between atoms: _38  and  _40
REMARK   17  A    between atoms: _40  and  _41
REMARK   18  A    between atoms: _40  and  _43
REMARK   19  A    between atoms: _43  and  _44
REMARK   20  A    between atoms: _49  and  _51
REMARK   21  A    between atoms: _51  and  _52
REMARK   22  A    between atoms: _51  and  _54
REMARK   23  A    between atoms: _54  and  _55
REMARK   24  A    between atoms: _58  and  _60
REMARK   25  A    between atoms: _60  and  _61
REMARK   26  A    between atoms: _60  and  _63
REMARK   27  A    between atoms: _63  and  _64
REMARK   28  A    between atoms: _67  and  _69
REMARK   29  A    between atoms: _69  and  _70
REMARK   30  A    between atoms: _69  and  _72
REMARK   31  A    between atoms: _72  and  _73
REMARK   32  A    between atoms: _73  and  _74
REMARK   33  A    between atoms: _79  and  _81
REMARK   34  A    between atoms: _81  and  _82
REMARK   35  A    between atoms: _81  and  _84
REMARK   36  A    between atoms: _84  and  _85
REMARK   37  A    between atoms: _85  and  _86
REMARK   38  A    between atoms: _86  and  _87
REMARK   39  A    between atoms: _96  and  _98
REMARK   40  A    between atoms: _98  and  _99
REMARK   41  A    between atoms: _98  and  _101
REMARK   42  A    between atoms: _101  and  _102
REMARK   43  A    between atoms: _107  and  _109
REMARK   44  A    between atoms: _109  and  _110
REMARK   45  A    between atoms: _109  and  _112
REMARK   46  A    between atoms: _112  and  _113
REMARK   47  A    between atoms: _116  and  _118
REMARK   48  A    between atoms: _118  and  _119
REMARK   49  A    between atoms: _118  and  _121
REMARK   50  A    between atoms: _121  and  _122
REMARK   51  A    between atoms: _122  and  _157
REMARK   52  A    between atoms: _123  and  _125
REMARK   53  A    between atoms: _125  and  _126
REMARK   54  A    between atoms: _128  and  _130
REMARK   55  A    between atoms: _130  and  _131
REMARK   56  A    between atoms: _134  and  _136
REMARK   57  A    between atoms: _136  and  _137
REMARK   58  A    between atoms: _140  and  _142
REMARK   59  A    between atoms: _142  and  _143
REMARK   60  A    between atoms: _142  and  _145
REMARK   61  A    between atoms: _145  and  _146
REMARK   62  A    between atoms: _151  and  _153
REMARK   63  A    between atoms: _153  and  _154
REMARK   64  A    between atoms: _153  and  _156
REMARK   65  A    between atoms: _156  and  _157
REMARK   66  A    between atoms: _158  and  _160
REMARK   67  A    between atoms: _160  and  _161
REMARK   68  A    between atoms: _160  and  _163
REMARK   69  A    between atoms: _163  and  _164
REMARK   70  A    between atoms: _170  and  _172
REMARK   71  A    between atoms: _172  and  _173
REMARK   72  A    between atoms: _172  and  _175
REMARK   73  A    between atoms: _175  and  _176
REMARK   74  A    between atoms: _181  and  _182
REMARK   75  A    between atoms: _184  and  _186
REMARK   76  A    between atoms: _186  and  _187
REMARK   77  A    between atoms: _186  and  _189
REMARK   78  A    between atoms: _192  and  _194
REMARK   79  A    between atoms: _194  and  _195
REMARK   80  A    between atoms: _194  and  _197
REMARK   81  A    between atoms: _197  and  _198
REMARK   82  A    between atoms: _198  and  _199
REMARK   83  A    between atoms: _204  and  _206
REMARK   84  A    between atoms: _206  and  _207
REMARK   85  A    between atoms: _210  and  _212
REMARK   86  A    between atoms: _212  and  _213
REMARK   87  A    between atoms: _212  and  _215
REMARK   88  A    between atoms: _215  and  _216
REMARK   89  A    between atoms: _219  and  _221
REMARK   90  A    between atoms: _221  and  _222
REMARK   91  A    between atoms: _221  and  _224
REMARK   92  A    between atoms: _227  and  _229
REMARK   93  A    between atoms: _229  and  _230
REMARK   94  A    between atoms: _229  and  _232
REMARK   95  A    between atoms: _232  and  _233
REMARK   96  A    between atoms: _243  and  _245
REMARK   97  A    between atoms: _245  and  _246
REMARK   98  A    between atoms: _248  and  _250
REMARK   99  A    between atoms: _250  and  _251
REMARK  100  A    between atoms: _250  and  _253
REMARK  101  A    between atoms: _253  and  _254
REMARK  102  A    between atoms: _259  and  _260
REMARK  103  A    between atoms: _262  and  _264
REMARK  104  A    between atoms: _264  and  _265
REMARK  105  A    between atoms: _264  and  _267
REMARK  106  A    between atoms: _267  and  _268
REMARK  107  A    between atoms: _268  and  _269
REMARK  108  A    between atoms: _269  and  _270
REMARK  109  A    between atoms: _270  and  _271
REMARK  110  A    between atoms: _275  and  _277
REMARK  111  A    between atoms: _277  and  _278
REMARK  112  A    between atoms: _277  and  _280
REMARK  113  A    between atoms: _280  and  _281
REMARK  114  A    between atoms: _284  and  _286
REMARK  115  A    between atoms: _286  and  _287
REMARK  116  A    between atoms: _286  and  _289
REMARK  117  A    between atoms: _289  and  _290
REMARK  118  A    between atoms: _293  and  _295
REMARK  119  A    between atoms: _295  and  _296
REMARK  120  A    between atoms: _295  and  _298
REMARK  121  A    between atoms: _298  and  _299
REMARK  122  A    between atoms: _299  and  _300
REMARK  123  A    between atoms: _300  and  _301
REMARK  124  A    between atoms: _301  and  _302
REMARK  125  A    between atoms: _306  and  _308
REMARK  126  A    between atoms: _308  and  _309
REMARK  127  A    between atoms: _308  and  _311
REMARK  128  A    between atoms: _311  and  _312
REMARK  129  A    between atoms: _315  and  _317
REMARK  130  A    between atoms: _317  and  _318
REMARK  131  A    between atoms: _317  and  _320
REMARK  132  A    between atoms: _320  and  _321
REMARK  133  A    between atoms: _321  and  _322
REMARK  134  A    between atoms: _327  and  _329
REMARK  135  A    between atoms: _329  and  _330
REMARK  136  A    between atoms: _329  and  _332
REMARK  137  A    between atoms: _332  and  _333
REMARK  138  A    between atoms: _338  and  _339
REMARK  139  A    between atoms: _341  and  _343
REMARK  140  A    between atoms: _343  and  _344
REMARK  141  A    between atoms: _343  and  _346
REMARK  142  A    between atoms: _346  and  _347
REMARK  143  A    between atoms: _350  and  _352
REMARK  144  A    between atoms: _352  and  _353
REMARK  145  A    between atoms: _352  and  _355
REMARK  146  A    between atoms: _357  and  _359
REMARK  147  A    between atoms: _359  and  _360
REMARK  148  A    between atoms: _363  and  _365
REMARK  149  A    between atoms: _365  and  _366
REMARK  150  A    between atoms: _365  and  _368
REMARK  151  A    between atoms: _368  and  _369
REMARK  152  A    between atoms: _369  and  _370
REMARK  153  A    between atoms: _370  and  _371
REMARK  154  A    between atoms: _371  and  _372
REMARK  155  A    between atoms: _376  and  _378
REMARK  156  A    between atoms: _378  and  _379
REMARK  157  A    between atoms: _378  and  _381
REMARK  158  A    between atoms: _381  and  _382
REMARK  159  A    between atoms: _385  and  _387
REMARK  160  A    between atoms: _387  and  _388
REMARK  161  A    between atoms: _391  and  _393
REMARK  162  A    between atoms: _393  and  _394
REMARK  163  A    between atoms: _393  and  _396
REMARK  164  A    between atoms: _396  and  _397
REMARK  165  A    between atoms: _397  and  _511
REMARK  166  A    between atoms: _398  and  _400
REMARK  167  A    between atoms: _400  and  _401
REMARK  168  A    between atoms: _400  and  _403
REMARK  169  A    between atoms: _403  and  _404
REMARK  170  A    between atoms: _404  and  _405
REMARK  171  A    between atoms: _405  and  _406
REMARK  172  A    between atoms: _406  and  _407
REMARK  173  A    between atoms: _411  and  _413
REMARK  174  A    between atoms: _413  and  _414
REMARK  175  A    between atoms: _416  and  _418
REMARK  176  A    between atoms: _418  and  _419
REMARK  177  A    between atoms: _418  and  _421
REMARK  178  A    between atoms: _421  and  _422
REMARK  179  A    between atoms: _425  and  _427
REMARK  180  A    between atoms: _427  and  _428
REMARK  181  A    between atoms: _427  and  _430
REMARK  182  A    between atoms: _430  and  _431
REMARK  183  A    between atoms: _433  and  _435
REMARK  184  A    between atoms: _435  and  _436
REMARK  185  A    between atoms: _438  and  _440
REMARK  186  A    between atoms: _440  and  _441
REMARK  187  A    between atoms: _443  and  _445
REMARK  188  A    between atoms: _445  and  _446
REMARK  189  A    between atoms: _445  and  _448
REMARK  190  A    between atoms: _448  and  _449
REMARK  191  A    between atoms: _452  and  _454
REMARK  192  A    between atoms: _454  and  _455
REMARK  193  A    between atoms: _454  and  _457
REMARK  194  A    between atoms: _457  and  _458
REMARK  195  A    between atoms: _461  and  _463
REMARK  196  A    between atoms: _463  and  _464
REMARK  197  A    between atoms: _463  and  _466
REMARK  198  A    between atoms: _466  and  _467
REMARK  199  A    between atoms: _469  and  _471
REMARK  200  A    between atoms: _471  and  _472
REMARK  201  A    between atoms: _471  and  _474
REMARK  202  A    between atoms: _474  and  _475
REMARK  203  A    between atoms: _485  and  _487
REMARK  204  A    between atoms: _487  and  _488
REMARK  205  A    between atoms: _490  and  _492
REMARK  206  A    between atoms: _492  and  _493
REMARK  207  A    between atoms: _492  and  _495
REMARK  208  A    between atoms: _495  and  _496
REMARK  209  A    between atoms: _496  and  _497
REMARK  210  A    between atoms: _500  and  _502
REMARK  211  A    between atoms: _502  and  _503
REMARK  212  A    between atoms: _505  and  _507
REMARK  213  A    between atoms: _507  and  _508
REMARK  214  A    between atoms: _507  and  _510
REMARK  215  A    between atoms: _510  and  _511
REMARK  216  A    between atoms: _512  and  _514
REMARK  217  A    between atoms: _514  and  _515
REMARK  218  A    between atoms: _518  and  _520
REMARK  219  A    between atoms: _520  and  _521
REMARK  220  A    between atoms: _520  and  _523
REMARK  221  A    between atoms: _523  and  _524
REMARK  222  A    between atoms: _524  and  _525
REMARK  223  A    between atoms: _530  and  _532
REMARK  224  A    between atoms: _532  and  _533
REMARK  225  A    between atoms: _532  and  _535
REMARK  226  A    between atoms: _535  and  _536
REMARK  227  A    between atoms: _536  and  _537
REMARK  228  A    between atoms: _537  and  _538
REMARK  229  A    between atoms: _548  and  _549
REMARK  230  A    between atoms: _554  and  _556
REMARK  231  A    between atoms: _556  and  _557
REMARK  232  A    between atoms: _559  and  _561
REMARK  233  A    between atoms: _561  and  _562
REMARK  234  A    between atoms: _561  and  _564
REMARK  235  A    between atoms: _567  and  _569
REMARK  236  A    between atoms: _569  and  _570
REMARK  237  A    between atoms: _569  and  _572
REMARK  238  A    between atoms: _572  and  _573
REMARK  239  A    between atoms: _578  and  _579
REMARK  240  A    between atoms: _581  and  _583
REMARK  241  A    between atoms: _583  and  _584
REMARK  242  A    between atoms: _583  and  _586
REMARK  243  A    between atoms: _586  and  _587
REMARK                            x       y       z     vdW  Elec       q    Type
REMARK                         _______ _______ _______ _____ _____    ______ ____
ROOT
ATOM      1  O   HOH     1      41.627  -9.296  22.630  0.00  0.00    +0.000 OA
ENDROOT
TORSDOF 0
REMARK  Name = ../refined-set-2016/4x6o/4x6o_pocket.pdb
REMARK  243 active torsions:
REMARK  status: ('A' for Active; 'I' for Inactive)
REMARK    1  A    between atoms: _1  and  _5
REMARK    2  A    between atoms: _5  and  _6
REMARK    3  A    between atoms: _5  and  _8
REMARK    4  A    between atoms: _8  and  _9
REMARK    5  A    between atoms: _12  and  _14
REMARK    6  A    between atoms: _14  and  _15
REMARK    7  A    between atoms: _14  and  _17
REMARK    8  A    between atoms: _20  and  _22
REMARK    9  A    between atoms: _22  and  _23
REMARK   10  A    between atoms: _22  and  _25
REMARK   11  A    between atoms: _25  and  _26
REMARK   12  A    between atoms: _29  and  _31
REMARK   13  A    between atoms: _31  and  _32
REMARK   14  A    between atoms: _31  and  _34
REMARK   15  A    between atoms: _34  and  _35
REMARK   16  A    between atoms: _38  and  _40
REMARK   17  A    between atoms: _40  and  _41
REMARK   18  A    between atoms: _40  and  _43
REMARK   19  A    between atoms: _43  and  _44
REMARK   20  A    between atoms: _49  and  _51
REMARK   21  A    between atoms: _51  and  _52
REMARK   22  A    between atoms: _51  and  _54
REMARK   23  A    between atoms: _54  and  _55
REMARK   24  A    between atoms: _58  and  _60
REMARK   25  A    between atoms: _60  and  _61
REMARK   26  A    between atoms: _60  and  _63
REMARK   27  A    between atoms: _63  and  _64
REMARK   28  A    between atoms: _67  and  _69
REMARK   29  A    between atoms: _69  and  _70
REMARK   30  A    between atoms: _69  and  _72
REMARK   31  A    between atoms: _72  and  _73
REMARK   32  A    between atoms: _73  and  _74
REMARK   33  A    between atoms: _79  and  _81
REMARK   34  A    between atoms: _81  and  _82
REMARK   35  A    between atoms: _81  and  _84
REMARK   36  A    between atoms: _84  and  _85
REMARK   37  A    between atoms: _85  and  _86
REMARK   38  A    between atoms: _86  and  _87
REMARK   39  A    between atoms: _96  and  _98
REMARK   40  A    between atoms: _98  and  _99
REMARK   41  A    between atoms: _98  and  _101
REMARK   42  A    between atoms: _101  and  _102
REMARK   43  A    between atoms: _107  and  _109
REMARK   44  A    between atoms: _109  and  _110
REMARK   45  A    between atoms: _109  and  _112
REMARK   46  A    between atoms: _112  and  _113
REMARK   47  A    between atoms: _116  and  _118
REMARK   48  A    between atoms: _118  and  _119
REMARK   49  A    between atoms: _118  and  _121
REMARK   50  A    between atoms: _121  and  _122
REMARK   51  A    between atoms: _122  and  _157
REMARK   52  A    between atoms: _123  and  _125
REMARK   53  A    between atoms: _125  and  _126
REMARK   54  A    between atoms: _128  and  _130
REMARK   55  A    between atoms: _130  and  _131
REMARK   56  A    between atoms: _134  and  _136
REMARK   57  A    between atoms: _136  and  _137
REMARK   58  A    between atoms: _140  and  _142
REMARK   59  A    between atoms: _142  and  _143
REMARK   60  A    between atoms: _142  and  _145
REMARK   61  A    between atoms: _145  and  _146
REMARK   62  A    between atoms: _151  and  _153
REMARK   63  A    between atoms: _153  and  _154
REMARK   64  A    between atoms: _153  and  _156
REMARK   65  A    between atoms: _156  and  _157
REMARK   66  A    between atoms: _158  and  _160
REMARK   67  A    between atoms: _160  and  _161
REMARK   68  A    between atoms: _160  and  _163
REMARK   69  A    between atoms: _163  and  _164
REMARK   70  A    between atoms: _170  and  _172
REMARK   71  A    between atoms: _172  and  _173
REMARK   72  A    between atoms: _172  and  _175
REMARK   73  A    between atoms: _175  and  _176
REMARK   74  A    between atoms: _181  and  _182
REMARK   75  A    between atoms: _184  and  _186
REMARK   76  A    between atoms: _186  and  _187
REMARK   77  A    between atoms: _186  and  _189
REMARK   78  A    between atoms: _192  and  _194
REMARK   79  A    between atoms: _194  and  _195
REMARK   80  A    between atoms: _194  and  _197
REMARK   81  A    between atoms: _197  and  _198
REMARK   82  A    between atoms: _198  and  _199
REMARK   83  A    between atoms: _204  and  _206
REMARK   84  A    between atoms: _206  and  _207
REMARK   85  A    between atoms: _210  and  _212
REMARK   86  A    between atoms: _212  and  _213
REMARK   87  A    between atoms: _212  and  _215
REMARK   88  A    between atoms: _215  and  _216
REMARK   89  A    between atoms: _219  and  _221
REMARK   90  A    between atoms: _221  and  _222
REMARK   91  A    between atoms: _221  and  _224
REMARK   92  A    between atoms: _227  and  _229
REMARK   93  A    between atoms: _229  and  _230
REMARK   94  A    between atoms: _229  and  _232
REMARK   95  A    between atoms: _232  and  _233
REMARK   96  A    between atoms: _243  and  _245
REMARK   97  A    between atoms: _245  and  _246
REMARK   98  A    between atoms: _248  and  _250
REMARK   99  A    between atoms: _250  and  _251
REMARK  100  A    between atoms: _250  and  _253
REMARK  101  A    between atoms: _253  and  _254
REMARK  102  A    between atoms: _259  and  _260
REMARK  103  A    between atoms: _262  and  _264
REMARK  104  A    between atoms: _264  and  _265
REMARK  105  A    between atoms: _264  and  _267
REMARK  106  A    between atoms: _267  and  _268
REMARK  107  A    between atoms: _268  and  _269
REMARK  108  A    between atoms: _269  and  _270
REMARK  109  A    between atoms: _270  and  _271
REMARK  110  A    between atoms: _275  and  _277
REMARK  111  A    between atoms: _277  and  _278
REMARK  112  A    between atoms: _277  and  _280
REMARK  113  A    between atoms: _280  and  _281
REMARK  114  A    between atoms: _284  and  _286
REMARK  115  A    between atoms: _286  and  _287
REMARK  116  A    between atoms: _286  and  _289
REMARK  117  A    between atoms: _289  and  _290
REMARK  118  A    between atoms: _293  and  _295
REMARK  119  A    between atoms: _295  and  _296
REMARK  120  A    between atoms: _295  and  _298
REMARK  121  A    between atoms: _298  and  _299
REMARK  122  A    between atoms: _299  and  _300
REMARK  123  A    between atoms: _300  and  _301
REMARK  124  A    between atoms: _301  and  _302
REMARK  125  A    between atoms: _306  and  _308
REMARK  126  A    between atoms: _308  and  _309
REMARK  127  A    between atoms: _308  and  _311
REMARK  128  A    between atoms: _311  and  _312
REMARK  129  A    between atoms: _315  and  _317
REMARK  130  A    between atoms: _317  and  _318
REMARK  131  A    between atoms: _317  and  _320
REMARK  132  A    between atoms: _320  and  _321
REMARK  133  A    between atoms: _321  and  _322
REMARK  134  A    between atoms: _327  and  _329
REMARK  135  A    between atoms: _329  and  _330
REMARK  136  A    between atoms: _329  and  _332
REMARK  137  A    between atoms: _332  and  _333
REMARK  138  A    between atoms: _338  and  _339
REMARK  139  A    between atoms: _341  and  _343
REMARK  140  A    between atoms: _343  and  _344
REMARK  141  A    between atoms: _343  and  _346
REMARK  142  A    between atoms: _346  and  _347
REMARK  143  A    between atoms: _350  and  _352
REMARK  144  A    between atoms: _352  and  _353
REMARK  145  A    between atoms: _352  and  _355
REMARK  146  A    between atoms: _357  and  _359
REMARK  147  A    between atoms: _359  and  _360
REMARK  148  A    between atoms: _363  and  _365
REMARK  149  A    between atoms: _365  and  _366
REMARK  150  A    between atoms: _365  and  _368
REMARK  151  A    between atoms: _368  and  _369
REMARK  152  A    between atoms: _369  and  _370
REMARK  153  A    between atoms: _370  and  _371
REMARK  154  A    between atoms: _371  and  _372
REMARK  155  A    between atoms: _376  and  _378
REMARK  156  A    between atoms: _378  and  _379
REMARK  157  A    between atoms: _378  and  _381
REMARK  158  A    between atoms: _381  and  _382
REMARK  159  A    between atoms: _385  and  _387
REMARK  160  A    between atoms: _387  and  _388
REMARK  161  A    between atoms: _391  and  _393
REMARK  162  A    between atoms: _393  and  _394
REMARK  163  A    between atoms: _393  and  _396
REMARK  164  A    between atoms: _396  and  _397
REMARK  165  A    between atoms: _397  and  _511
REMARK  166  A    between atoms: _398  and  _400
REMARK  167  A    between atoms: _400  and  _401
REMARK  168  A    between atoms: _400  and  _403
REMARK  169  A    between atoms: _403  and  _404
REMARK  170  A    between atoms: _404  and  _405
REMARK  171  A    between atoms: _405  and  _406
REMARK  172  A    between atoms: _406  and  _407
REMARK  173  A    between atoms: _411  and  _413
REMARK  174  A    between atoms: _413  and  _414
REMARK  175  A    between atoms: _416  and  _418
REMARK  176  A    between atoms: _418  and  _419
REMARK  177  A    between atoms: _418  and  _421
REMARK  178  A    between atoms: _421  and  _422
REMARK  179  A    between atoms: _425  and  _427
REMARK  180  A    between atoms: _427  and  _428
REMARK  181  A    between atoms: _427  and  _430
REMARK  182  A    between atoms: _430  and  _431
REMARK  183  A    between atoms: _433  and  _435
REMARK  184  A    between atoms: _435  and  _436
REMARK  185  A    between atoms: _438  and  _440
REMARK  186  A    between atoms: _440  and  _441
REMARK  187  A    between atoms: _443  and  _445
REMARK  188  A    between atoms: _445  and  _446
REMARK  189  A    between atoms: _445  and  _448
REMARK  190  A    between atoms: _448  and  _449
REMARK  191  A    between atoms: _452  and  _454
REMARK  192  A    between atoms: _454  and  _455
REMARK  193  A    between atoms: _454  and  _457
REMARK  194  A    between atoms: _457  and  _458
REMARK  195  A    between atoms: _461  and  _463
REMARK  196  A    between atoms: _463  and  _464
REMARK  197  A    between atoms: _463  and  _466
REMARK  198  A    between atoms: _466  and  _467
REMARK  199  A    between atoms: _469  and  _471
REMARK  200  A    between atoms: _471  and  _472
REMARK  201  A    between atoms: _471  and  _474
REMARK  202  A    between atoms: _474  and  _475
REMARK  203  A    between atoms: _485  and  _487
REMARK  204  A    between atoms: _487  and  _488
REMARK  205  A    between atoms: _490  and  _492
REMARK  206  A    between atoms: _492  and  _493
REMARK  207  A    between atoms: _492  and  _495
REMARK  208  A    between atoms: _495  and  _496
REMARK  209  A    between atoms: _496  and  _497
REMARK  210  A    between atoms: _500  and  _502
REMARK  211  A    between atoms: _502  and  _503
REMARK  212  A    between atoms: _505  and  _507
REMARK  213  A    between atoms: _507  and  _508
REMARK  214  A    between atoms: _507  and  _510
REMARK  215  A    between atoms: _510  and  _511
REMARK  216  A    between atoms: _512  and  _514
REMARK  217  A    between atoms: _514  and  _515
REMARK  218  A    between atoms: _518  and  _520
REMARK  219  A    between atoms: _520  and  _521
REMARK  220  A    between atoms: _520  and  _523
REMARK  221  A    between atoms: _523  and  _524
REMARK  222  A    between atoms: _524  and  _525
REMARK  223  A    between atoms: _530  and  _532
REMARK  224  A    between atoms: _532  and  _533
REMARK  225  A    between atoms: _532  and  _535
REMARK  226  A    between atoms: _535  and  _536
REMARK  227  A    between atoms: _536  and  _537
REMARK  228  A    between atoms: _537  and  _538
REMARK  229  A    between atoms: _548  and  _549
REMARK  230  A    between atoms: _554  and  _556
REMARK  231  A    between atoms: _556  and  _557
REMARK  232  A    between atoms: _559  and  _561
REMARK  233  A    between atoms: _561  and  _562
REMARK  234  A    between atoms: _561  and  _564
REMARK  235  A    between atoms: _567  and  _569
REMARK  236  A    between atoms: _569  and  _570
REMARK  237  A    between atoms: _569  and  _572
REMARK  238  A    between atoms: _572  and  _573
REMARK  239  A    between atoms: _578  and  _579
REMARK  240  A    between atoms: _581  and  _583
REMARK  241  A    between atoms: _583  and  _584
REMARK  242  A    between atoms: _583  and  _586
REMARK  243  A    between atoms: _586  and  _587
REMARK                            x       y       z     vdW  Elec       q    Type
REMARK                         _______ _______ _______ _____ _____    ______ ____
ROOT
ATOM      1  O   HOH     1      48.836 -18.785  25.900  0.00  0.00    +0.000 OA
ENDROOT
TORSDOF 0
REMARK  Name = ../refined-set-2016/4x6o/4x6o_pocket.pdb
REMARK  243 active torsions:
REMARK  status: ('A' for Active; 'I' for Inactive)
REMARK    1  A    between atoms: _1  and  _5
REMARK    2  A    between atoms: _5  and  _6
REMARK    3  A    between atoms: _5  and  _8
REMARK    4  A    between atoms: _8  and  _9
REMARK    5  A    between atoms: _12  and  _14
REMARK    6  A    between atoms: _14  and  _15
REMARK    7  A    between atoms: _14  and  _17
REMARK    8  A    between atoms: _20  and  _22
REMARK    9  A    between atoms: _22  and  _23
REMARK   10  A    between atoms: _22  and  _25
REMARK   11  A    between atoms: _25  and  _26
REMARK   12  A    between atoms: _29  and  _31
REMARK   13  A    between atoms: _31  and  _32
REMARK   14  A    between atoms: _31  and  _34
REMARK   15  A    between atoms: _34  and  _35
REMARK   16  A    between atoms: _38  and  _40
REMARK   17  A    between atoms: _40  and  _41
REMARK   18  A    between atoms: _40  and  _43
REMARK   19  A    between atoms: _43  and  _44
REMARK   20  A    between atoms: _49  and  _51
REMARK   21  A    between atoms: _51  and  _52
REMARK   22  A    between atoms: _51  and  _54
REMARK   23  A    between atoms: _54  and  _55
REMARK   24  A    between atoms: _58  and  _60
REMARK   25  A    between atoms: _60  and  _61
REMARK   26  A    between atoms: _60  and  _63
REMARK   27  A    between atoms: _63  and  _64
REMARK   28  A    between atoms: _67  and  _69
REMARK   29  A    between atoms: _69  and  _70
REMARK   30  A    between atoms: _69  and  _72
REMARK   31  A    between atoms: _72  and  _73
REMARK   32  A    between atoms: _73  and  _74
REMARK   33  A    between atoms: _79  and  _81
REMARK   34  A    between atoms: _81  and  _82
REMARK   35  A    between atoms: _81  and  _84
REMARK   36  A    between atoms: _84  and  _85
REMARK   37  A    between atoms: _85  and  _86
REMARK   38  A    between atoms: _86  and  _87
REMARK   39  A    between atoms: _96  and  _98
REMARK   40  A    between atoms: _98  and  _99
REMARK   41  A    between atoms: _98  and  _101
REMARK   42  A    between atoms: _101  and  _102
REMARK   43  A    between atoms: _107  and  _109
REMARK   44  A    between atoms: _109  and  _110
REMARK   45  A    between atoms: _109  and  _112
REMARK   46  A    between atoms: _112  and  _113
REMARK   47  A    between atoms: _116  and  _118
REMARK   48  A    between atoms: _118  and  _119
REMARK   49  A    between atoms: _118  and  _121
REMARK   50  A    between atoms: _121  and  _122
REMARK   51  A    between atoms: _122  and  _157
REMARK   52  A    between atoms: _123  and  _125
REMARK   53  A    between atoms: _125  and  _126
REMARK   54  A    between atoms: _128  and  _130
REMARK   55  A    between atoms: _130  and  _131
REMARK   56  A    between atoms: _134  and  _136
REMARK   57  A    between atoms: _136  and  _137
REMARK   58  A    between atoms: _140  and  _142
REMARK   59  A    between atoms: _142  and  _143
REMARK   60  A    between atoms: _142  and  _145
REMARK   61  A    between atoms: _145  and  _146
REMARK   62  A    between atoms: _151  and  _153
REMARK   63  A    between atoms: _153  and  _154
REMARK   64  A    between atoms: _153  and  _156
REMARK   65  A    between atoms: _156  and  _157
REMARK   66  A    between atoms: _158  and  _160
REMARK   67  A    between atoms: _160  and  _161
REMARK   68  A    between atoms: _160  and  _163
REMARK   69  A    between atoms: _163  and  _164
REMARK   70  A    between atoms: _170  and  _172
REMARK   71  A    between atoms: _172  and  _173
REMARK   72  A    between atoms: _172  and  _175
REMARK   73  A    between atoms: _175  and  _176
REMARK   74  A    between atoms: _181  and  _182
REMARK   75  A    between atoms: _184  and  _186
REMARK   76  A    between atoms: _186  and  _187
REMARK   77  A    between atoms: _186  and  _189
REMARK   78  A    between atoms: _192  and  _194
REMARK   79  A    between atoms: _194  and  _195
REMARK   80  A    between atoms: _194  and  _197
REMARK   81  A    between atoms: _197  and  _198
REMARK   82  A    between atoms: _198  and  _199
REMARK   83  A    between atoms: _204  and  _206
REMARK   84  A    between atoms: _206  and  _207
REMARK   85  A    between atoms: _210  and  _212
REMARK   86  A    between atoms: _212  and  _213
REMARK   87  A    between atoms: _212  and  _215
REMARK   88  A    between atoms: _215  and  _216
REMARK   89  A    between atoms: _219  and  _221
REMARK   90  A    between atoms: _221  and  _222
REMARK   91  A    between atoms: _221  and  _224
REMARK   92  A    between atoms: _227  and  _229
REMARK   93  A    between atoms: _229  and  _230
REMARK   94  A    between atoms: _229  and  _232
REMARK   95  A    between atoms: _232  and  _233
REMARK   96  A    between atoms: _243  and  _245
REMARK   97  A    between atoms: _245  and  _246
REMARK   98  A    between atoms: _248  and  _250
REMARK   99  A    between atoms: _250  and  _251
REMARK  100  A    between atoms: _250  and  _253
REMARK  101  A    between atoms: _253  and  _254
REMARK  102  A    between atoms: _259  and  _260
REMARK  103  A    between atoms: _262  and  _264
REMARK  104  A    between atoms: _264  and  _265
REMARK  105  A    between atoms: _264  and  _267
REMARK  106  A    between atoms: _267  and  _268
REMARK  107  A    between atoms: _268  and  _269
REMARK  108  A    between atoms: _269  and  _270
REMARK  109  A    between atoms: _270  and  _271
REMARK  110  A    between atoms: _275  and  _277
REMARK  111  A    between atoms: _277  and  _278
REMARK  112  A    between atoms: _277  and  _280
REMARK  113  A    between atoms: _280  and  _281
REMARK  114  A    between atoms: _284  and  _286
REMARK  115  A    between atoms: _286  and  _287
REMARK  116  A    between atoms: _286  and  _289
REMARK  117  A    between atoms: _289  and  _290
REMARK  118  A    between atoms: _293  and  _295
REMARK  119  A    between atoms: _295  and  _296
REMARK  120  A    between atoms: _295  and  _298
REMARK  121  A    between atoms: _298  and  _299
REMARK  122  A    between atoms: _299  and  _300
REMARK  123  A    between atoms: _300  and  _301
REMARK  124  A    between atoms: _301  and  _302
REMARK  125  A    between atoms: _306  and  _308
REMARK  126  A    between atoms: _308  and  _309
REMARK  127  A    between atoms: _308  and  _311
REMARK  128  A    between atoms: _311  and  _312
REMARK  129  A    between atoms: _315  and  _317
REMARK  130  A    between atoms: _317  and  _318
REMARK  131  A    between atoms: _317  and  _320
REMARK  132  A    between atoms: _320  and  _321
REMARK  133  A    between atoms: _321  and  _322
REMARK  134  A    between atoms: _327  and  _329
REMARK  135  A    between atoms: _329  and  _330
REMARK  136  A    between atoms: _329  and  _332
REMARK  137  A    between atoms: _332  and  _333
REMARK  138  A    between atoms: _338  and  _339
REMARK  139  A    between atoms: _341  and  _343
REMARK  140  A    between atoms: _343  and  _344
REMARK  141  A    between atoms: _343  and  _346
REMARK  142  A    between atoms: _346  and  _347
REMARK  143  A    between atoms: _350  and  _352
REMARK  144  A    between atoms: _352  and  _353
REMARK  145  A    between atoms: _352  and  _355
REMARK  146  A    between atoms: _357  and  _359
REMARK  147  A    between atoms: _359  and  _360
REMARK  148  A    between atoms: _363  and  _365
REMARK  149  A    between atoms: _365  and  _366
REMARK  150  A    between atoms: _365  and  _368
REMARK  151  A    between atoms: _368  and  _369
REMARK  152  A    between atoms: _369  and  _370
REMARK  153  A    between atoms: _370  and  _371
REMARK  154  A    between atoms: _371  and  _372
REMARK  155  A    between atoms: _376  and  _378
REMARK  156  A    between atoms: _378  and  _379
REMARK  157  A    between atoms: _378  and  _381
REMARK  158  A    between atoms: _381  and  _382
REMARK  159  A    between atoms: _385  and  _387
REMARK  160  A    between atoms: _387  and  _388
REMARK  161  A    between atoms: _391  and  _393
REMARK  162  A    between atoms: _393  and  _394
REMARK  163  A    between atoms: _393  and  _396
REMARK  164  A    between atoms: _396  and  _397
REMARK  165  A    between atoms: _397  and  _511
REMARK  166  A    between atoms: _398  and  _400
REMARK  167  A    between atoms: _400  and  _401
REMARK  168  A    between atoms: _400  and  _403
REMARK  169  A    between atoms: _403  and  _404
REMARK  170  A    between atoms: _404  and  _405
REMARK  171  A    between atoms: _405  and  _406
REMARK  172  A    between atoms: _406  and  _407
REMARK  173  A    between atoms: _411  and  _413
REMARK  174  A    between atoms: _413  and  _414
REMARK  175  A    between atoms: _416  and  _418
REMARK  176  A    between atoms: _418  and  _419
REMARK  177  A    between atoms: _418  and  _421
REMARK  178  A    between atoms: _421  and  _422
REMARK  179  A    between atoms: _425  and  _427
REMARK  180  A    between atoms: _427  and  _428
REMARK  181  A    between atoms: _427  and  _430
REMARK  182  A    between atoms: _430  and  _431
REMARK  183  A    between atoms: _433  and  _435
REMARK  184  A    between atoms: _435  and  _436
REMARK  185  A    between atoms: _438  and  _440
REMARK  186  A    between atoms: _440  and  _441
REMARK  187  A    between atoms: _443  and  _445
REMARK  188  A    between atoms: _445  and  _446
REMARK  189  A    between atoms: _445  and  _448
REMARK  190  A    between atoms: _448  and  _449
REMARK  191  A    between atoms: _452  and  _454
REMARK  192  A    between atoms: _454  and  _455
REMARK  193  A    between atoms: _454  and  _457
REMARK  194  A    between atoms: _457  and  _458
REMARK  195  A    between atoms: _461  and  _463
REMARK  196  A    between atoms: _463  and  _464
REMARK  197  A    between atoms: _463  and  _466
REMARK  198  A    between atoms: _466  and  _467
REMARK  199  A    between atoms: _469  and  _471
REMARK  200  A    between atoms: _471  and  _472
REMARK  201  A    between atoms: _471  and  _474
REMARK  202  A    between atoms: _474  and  _475
REMARK  203  A    between atoms: _485  and  _487
REMARK  204  A    between atoms: _487  and  _488
REMARK  205  A    between atoms: _490  and  _492
REMARK  206  A    between atoms: _492  and  _493
REMARK  207  A    between atoms: _492  and  _495
REMARK  208  A    between atoms: _495  and  _496
REMARK  209  A    between atoms: _496  and  _497
REMARK  210  A    between atoms: _500  and  _502
REMARK  211  A    between atoms: _502  and  _503
REMARK  212  A    between atoms: _505  and  _507
REMARK  213  A    between atoms: _507  and  _508
REMARK  214  A    between atoms: _507  and  _510
REMARK  215  A    between atoms: _510  and  _511
REMARK  216  A    between atoms: _512  and  _514
REMARK  217  A    between atoms: _514  and  _515
REMARK  218  A    between atoms: _518  and  _520
REMARK  219  A    between atoms: _520  and  _521
REMARK  220  A    between atoms: _520  and  _523
REMARK  221  A    between atoms: _523  and  _524
REMARK  222  A    between atoms: _524  and  _525
REMARK  223  A    between atoms: _530  and  _532
REMARK  224  A    between atoms: _532  and  _533
REMARK  225  A    between atoms: _532  and  _535
REMARK  226  A    between atoms: _535  and  _536
REMARK  227  A    between atoms: _536  and  _537
REMARK  228  A    between atoms: _537  and  _538
REMARK  229  A    between atoms: _548  and  _549
REMARK  230  A    between atoms: _554  and  _556
REMARK  231  A    between atoms: _556  and  _557
REMARK  232  A    between atoms: _559  and  _561
REMARK  233  A    between atoms: _561  and  _562
REMARK  234  A    between atoms: _561  and  _564
REMARK  235  A    between atoms: _567  and  _569
REMARK  236  A    between atoms: _569  and  _570
REMARK  237  A    between atoms: _569  and  _572
REMARK  238  A    between atoms: _572  and  _573
REMARK  239  A    between atoms: _578  and  _579
REMARK  240  A    between atoms: _581  and  _583
REMARK  241  A    between atoms: _583  and  _584
REMARK  242  A    between atoms: _583  and  _586
REMARK  243  A    between atoms: _586  and  _587
REMARK                            x       y       z     vdW  Elec       q    Type
REMARK                         _______ _______ _______ _____ _____    ______ ____
ROOT
ATOM      1  O   HOH     1      44.011  -8.644  24.675  0.00  0.00    +0.000 OA
ENDROOT
TORSDOF 0
REMARK  Name = ../refined-set-2016/4x6o/4x6o_pocket.pdb
REMARK  243 active torsions:
REMARK  status: ('A' for Active; 'I' for Inactive)
REMARK    1  A    between atoms: _1  and  _5
REMARK    2  A    between atoms: _5  and  _6
REMARK    3  A    between atoms: _5  and  _8
REMARK    4  A    between atoms: _8  and  _9
REMARK    5  A    between atoms: _12  and  _14
REMARK    6  A    between atoms: _14  and  _15
REMARK    7  A    between atoms: _14  and  _17
REMARK    8  A    between atoms: _20  and  _22
REMARK    9  A    between atoms: _22  and  _23
REMARK   10  A    between atoms: _22  and  _25
REMARK   11  A    between atoms: _25  and  _26
REMARK   12  A    between atoms: _29  and  _31
REMARK   13  A    between atoms: _31  and  _32
REMARK   14  A    between atoms: _31  and  _34
REMARK   15  A    between atoms: _34  and  _35
REMARK   16  A    between atoms: _38  and  _40
REMARK   17  A    between atoms: _40  and  _41
REMARK   18  A    between atoms: _40  and  _43
REMARK   19  A    between atoms: _43  and  _44
REMARK   20  A    between atoms: _49  and  _51
REMARK   21  A    between atoms: _51  and  _52
REMARK   22  A    between atoms: _51  and  _54
REMARK   23  A    between atoms: _54  and  _55
REMARK   24  A    between atoms: _58  and  _60
REMARK   25  A    between atoms: _60  and  _61
REMARK   26  A    between atoms: _60  and  _63
REMARK   27  A    between atoms: _63  and  _64
REMARK   28  A    between atoms: _67  and  _69
REMARK   29  A    between atoms: _69  and  _70
REMARK   30  A    between atoms: _69  and  _72
REMARK   31  A    between atoms: _72  and  _73
REMARK   32  A    between atoms: _73  and  _74
REMARK   33  A    between atoms: _79  and  _81
REMARK   34  A    between atoms: _81  and  _82
REMARK   35  A    between atoms: _81  and  _84
REMARK   36  A    between atoms: _84  and  _85
REMARK   37  A    between atoms: _85  and  _86
REMARK   38  A    between atoms: _86  and  _87
REMARK   39  A    between atoms: _96  and  _98
REMARK   40  A    between atoms: _98  and  _99
REMARK   41  A    between atoms: _98  and  _101
REMARK   42  A    between atoms: _101  and  _102
REMARK   43  A    between atoms: _107  and  _109
REMARK   44  A    between atoms: _109  and  _110
REMARK   45  A    between atoms: _109  and  _112
REMARK   46  A    between atoms: _112  and  _113
REMARK   47  A    between atoms: _116  and  _118
REMARK   48  A    between atoms: _118  and  _119
REMARK   49  A    between atoms: _118  and  _121
REMARK   50  A    between atoms: _121  and  _122
REMARK   51  A    between atoms: _122  and  _157
REMARK   52  A    between atoms: _123  and  _125
REMARK   53  A    between atoms: _125  and  _126
REMARK   54  A    between atoms: _128  and  _130
REMARK   55  A    between atoms: _130  and  _131
REMARK   56  A    between atoms: _134  and  _136
REMARK   57  A    between atoms: _136  and  _137
REMARK   58  A    between atoms: _140  and  _142
REMARK   59  A    between atoms: _142  and  _143
REMARK   60  A    between atoms: _142  and  _145
REMARK   61  A    between atoms: _145  and  _146
REMARK   62  A    between atoms: _151  and  _153
REMARK   63  A    between atoms: _153  and  _154
REMARK   64  A    between atoms: _153  and  _156
REMARK   65  A    between atoms: _156  and  _157
REMARK   66  A    between atoms: _158  and  _160
REMARK   67  A    between atoms: _160  and  _161
REMARK   68  A    between atoms: _160  and  _163
REMARK   69  A    between atoms: _163  and  _164
REMARK   70  A    between atoms: _170  and  _172
REMARK   71  A    between atoms: _172  and  _173
REMARK   72  A    between atoms: _172  and  _175
REMARK   73  A    between atoms: _175  and  _176
REMARK   74  A    between atoms: _181  and  _182
REMARK   75  A    between atoms: _184  and  _186
REMARK   76  A    between atoms: _186  and  _187
REMARK   77  A    between atoms: _186  and  _189
REMARK   78  A    between atoms: _192  and  _194
REMARK   79  A    between atoms: _194  and  _195
REMARK   80  A    between atoms: _194  and  _197
REMARK   81  A    between atoms: _197  and  _198
REMARK   82  A    between atoms: _198  and  _199
REMARK   83  A    between atoms: _204  and  _206
REMARK   84  A    between atoms: _206  and  _207
REMARK   85  A    between atoms: _210  and  _212
REMARK   86  A    between atoms: _212  and  _213
REMARK   87  A    between atoms: _212  and  _215
REMARK   88  A    between atoms: _215  and  _216
REMARK   89  A    between atoms: _219  and  _221
REMARK   90  A    between atoms: _221  and  _222
REMARK   91  A    between atoms: _221  and  _224
REMARK   92  A    between atoms: _227  and  _229
REMARK   93  A    between atoms: _229  and  _230
REMARK   94  A    between atoms: _229  and  _232
REMARK   95  A    between atoms: _232  and  _233
REMARK   96  A    between atoms: _243  and  _245
REMARK   97  A    between atoms: _245  and  _246
REMARK   98  A    between atoms: _248  and  _250
REMARK   99  A    between atoms: _250  and  _251
REMARK  100  A    between atoms: _250  and  _253
REMARK  101  A    between atoms: _253  and  _254
REMARK  102  A    between atoms: _259  and  _260
REMARK  103  A    between atoms: _262  and  _264
REMARK  104  A    between atoms: _264  and  _265
REMARK  105  A    between atoms: _264  and  _267
REMARK  106  A    between atoms: _267  and  _268
REMARK  107  A    between atoms: _268  and  _269
REMARK  108  A    between atoms: _269  and  _270
REMARK  109  A    between atoms: _270  and  _271
REMARK  110  A    between atoms: _275  and  _277
REMARK  111  A    between atoms: _277  and  _278
REMARK  112  A    between atoms: _277  and  _280
REMARK  113  A    between atoms: _280  and  _281
REMARK  114  A    between atoms: _284  and  _286
REMARK  115  A    between atoms: _286  and  _287
REMARK  116  A    between atoms: _286  and  _289
REMARK  117  A    between atoms: _289  and  _290
REMARK  118  A    between atoms: _293  and  _295
REMARK  119  A    between atoms: _295  and  _296
REMARK  120  A    between atoms: _295  and  _298
REMARK  121  A    between atoms: _298  and  _299
REMARK  122  A    between atoms: _299  and  _300
REMARK  123  A    between atoms: _300  and  _301
REMARK  124  A    between atoms: _301  and  _302
REMARK  125  A    between atoms: _306  and  _308
REMARK  126  A    between atoms: _308  and  _309
REMARK  127  A    between atoms: _308  and  _311
REMARK  128  A    between atoms: _311  and  _312
REMARK  129  A    between atoms: _315  and  _317
REMARK  130  A    between atoms: _317  and  _318
REMARK  131  A    between atoms: _317  and  _320
REMARK  132  A    between atoms: _320  and  _321
REMARK  133  A    between atoms: _321  and  _322
REMARK  134  A    between atoms: _327  and  _329
REMARK  135  A    between atoms: _329  and  _330
REMARK  136  A    between atoms: _329  and  _332
REMARK  137  A    between atoms: _332  and  _333
REMARK  138  A    between atoms: _338  and  _339
REMARK  139  A    between atoms: _341  and  _343
REMARK  140  A    between atoms: _343  and  _344
REMARK  141  A    between atoms: _343  and  _346
REMARK  142  A    between atoms: _346  and  _347
REMARK  143  A    between atoms: _350  and  _352
REMARK  144  A    between atoms: _352  and  _353
REMARK  145  A    between atoms: _352  and  _355
REMARK  146  A    between atoms: _357  and  _359
REMARK  147  A    between atoms: _359  and  _360
REMARK  148  A    between atoms: _363  and  _365
REMARK  149  A    between atoms: _365  and  _366
REMARK  150  A    between atoms: _365  and  _368
REMARK  151  A    between atoms: _368  and  _369
REMARK  152  A    between atoms: _369  and  _370
REMARK  153  A    between atoms: _370  and  _371
REMARK  154  A    between atoms: _371  and  _372
REMARK  155  A    between atoms: _376  and  _378
REMARK  156  A    between atoms: _378  and  _379
REMARK  157  A    between atoms: _378  and  _381
REMARK  158  A    between atoms: _381  and  _382
REMARK  159  A    between atoms: _385  and  _387
REMARK  160  A    between atoms: _387  and  _388
REMARK  161  A    between atoms: _391  and  _393
REMARK  162  A    between atoms: _393  and  _394
REMARK  163  A    between atoms: _393  and  _396
REMARK  164  A    between atoms: _396  and  _397
REMARK  165  A    between atoms: _397  and  _511
REMARK  166  A    between atoms: _398  and  _400
REMARK  167  A    between atoms: _400  and  _401
REMARK  168  A    between atoms: _400  and  _403
REMARK  169  A    between atoms: _403  and  _404
REMARK  170  A    between atoms: _404  and  _405
REMARK  171  A    between atoms: _405  and  _406
REMARK  172  A    between atoms: _406  and  _407
REMARK  173  A    between atoms: _411  and  _413
REMARK  174  A    between atoms: _413  and  _414
REMARK  175  A    between atoms: _416  and  _418
REMARK  176  A    between atoms: _418  and  _419
REMARK  177  A    between atoms: _418  and  _421
REMARK  178  A    between atoms: _421  and  _422
REMARK  179  A    between atoms: _425  and  _427
REMARK  180  A    between atoms: _427  and  _428
REMARK  181  A    between atoms: _427  and  _430
REMARK  182  A    between atoms: _430  and  _431
REMARK  183  A    between atoms: _433  and  _435
REMARK  184  A    between atoms: _435  and  _436
REMARK  185  A    between atoms: _438  and  _440
REMARK  186  A    between atoms: _440  and  _441
REMARK  187  A    between atoms: _443  and  _445
REMARK  188  A    between atoms: _445  and  _446
REMARK  189  A    between atoms: _445  and  _448
REMARK  190  A    between atoms: _448  and  _449
REMARK  191  A    between atoms: _452  and  _454
REMARK  192  A    between atoms: _454  and  _455
REMARK  193  A    between atoms: _454  and  _457
REMARK  194  A    between atoms: _457  and  _458
REMARK  195  A    between atoms: _461  and  _463
REMARK  196  A    between atoms: _463  and  _464
REMARK  197  A    between atoms: _463  and  _466
REMARK  198  A    between atoms: _466  and  _467
REMARK  199  A    between atoms: _469  and  _471
REMARK  200  A    between atoms: _471  and  _472
REMARK  201  A    between atoms: _471  and  _474
REMARK  202  A    between atoms: _474  and  _475
REMARK  203  A    between atoms: _485  and  _487
REMARK  204  A    between atoms: _487  and  _488
REMARK  205  A    between atoms: _490  and  _492
REMARK  206  A    between atoms: _492  and  _493
REMARK  207  A    between atoms: _492  and  _495
REMARK  208  A    between atoms: _495  and  _496
REMARK  209  A    between atoms: _496  and  _497
REMARK  210  A    between atoms: _500  and  _502
REMARK  211  A    between atoms: _502  and  _503
REMARK  212  A    between atoms: _505  and  _507
REMARK  213  A    between atoms: _507  and  _508
REMARK  214  A    between atoms: _507  and  _510
REMARK  215  A    between atoms: _510  and  _511
REMARK  216  A    between atoms: _512  and  _514
REMARK  217  A    between atoms: _514  and  _515
REMARK  218  A    between atoms: _518  and  _520
REMARK  219  A    between atoms: _520  and  _521
REMARK  220  A    between atoms: _520  and  _523
REMARK  221  A    between atoms: _523  and  _524
REMARK  222  A    between atoms: _524  and  _525
REMARK  223  A    between atoms: _530  and  _532
REMARK  224  A    between atoms: _532  and  _533
REMARK  225  A    between atoms: _532  and  _535
REMARK  226  A    between atoms: _535  and  _536
REMARK  227  A    between atoms: _536  and  _537
REMARK  228  A    between atoms: _537  and  _538
REMARK  229  A    between atoms: _548  and  _549
REMARK  230  A    between atoms: _554  and  _556
REMARK  231  A    between atoms: _556  and  _557
REMARK  232  A    between atoms: _559  and  _561
REMARK  233  A    between atoms: _561  and  _562
REMARK  234  A    between atoms: _561  and  _564
REMARK  235  A    between atoms: _567  and  _569
REMARK  236  A    between atoms: _569  and  _570
REMARK  237  A    between atoms: _569  and  _572
REMARK  238  A    between atoms: _572  and  _573
REMARK  239  A    between atoms: _578  and  _579
REMARK  240  A    between atoms: _581  and  _583
REMARK  241  A    between atoms: _583  and  _584
REMARK  242  A    between atoms: _583  and  _586
REMARK  243  A    between atoms: _586  and  _587
REMARK                            x       y       z     vdW  Elec       q    Type
REMARK                         _______ _______ _______ _____ _____    ______ ____
ROOT
ATOM      1  O   HOH     1      43.790 -30.107  30.882  0.00  0.00    +0.000 OA
ENDROOT
TORSDOF 0
REMARK  Name = ../refined-set-2016/4x6o/4x6o_pocket.pdb
REMARK  243 active torsions:
REMARK  status: ('A' for Active; 'I' for Inactive)
REMARK    1  A    between atoms: _1  and  _5
REMARK    2  A    between atoms: _5  and  _6
REMARK    3  A    between atoms: _5  and  _8
REMARK    4  A    between atoms: _8  and  _9
REMARK    5  A    between atoms: _12  and  _14
REMARK    6  A    between atoms: _14  and  _15
REMARK    7  A    between atoms: _14  and  _17
REMARK    8  A    between atoms: _20  and  _22
REMARK    9  A    between atoms: _22  and  _23
REMARK   10  A    between atoms: _22  and  _25
REMARK   11  A    between atoms: _25  and  _26
REMARK   12  A    between atoms: _29  and  _31
REMARK   13  A    between atoms: _31  and  _32
REMARK   14  A    between atoms: _31  and  _34
REMARK   15  A    between atoms: _34  and  _35
REMARK   16  A    between atoms: _38  and  _40
REMARK   17  A    between atoms: _40  and  _41
REMARK   18  A    between atoms: _40  and  _43
REMARK   19  A    between atoms: _43  and  _44
REMARK   20  A    between atoms: _49  and  _51
REMARK   21  A    between atoms: _51  and  _52
REMARK   22  A    between atoms: _51  and  _54
REMARK   23  A    between atoms: _54  and  _55
REMARK   24  A    between atoms: _58  and  _60
REMARK   25  A    between atoms: _60  and  _61
REMARK   26  A    between atoms: _60  and  _63
REMARK   27  A    between atoms: _63  and  _64
REMARK   28  A    between atoms: _67  and  _69
REMARK   29  A    between atoms: _69  and  _70
REMARK   30  A    between atoms: _69  and  _72
REMARK   31  A    between atoms: _72  and  _73
REMARK   32  A    between atoms: _73  and  _74
REMARK   33  A    between atoms: _79  and  _81
REMARK   34  A    between atoms: _81  and  _82
REMARK   35  A    between atoms: _81  and  _84
REMARK   36  A    between atoms: _84  and  _85
REMARK   37  A    between atoms: _85  and  _86
REMARK   38  A    between atoms: _86  and  _87
REMARK   39  A    between atoms: _96  and  _98
REMARK   40  A    between atoms: _98  and  _99
REMARK   41  A    between atoms: _98  and  _101
REMARK   42  A    between atoms: _101  and  _102
REMARK   43  A    between atoms: _107  and  _109
REMARK   44  A    between atoms: _109  and  _110
REMARK   45  A    between atoms: _109  and  _112
REMARK   46  A    between atoms: _112  and  _113
REMARK   47  A    between atoms: _116  and  _118
REMARK   48  A    between atoms: _118  and  _119
REMARK   49  A    between atoms: _118  and  _121
REMARK   50  A    between atoms: _121  and  _122
REMARK   51  A    between atoms: _122  and  _157
REMARK   52  A    between atoms: _123  and  _125
REMARK   53  A    between atoms: _125  and  _126
REMARK   54  A    between atoms: _128  and  _130
REMARK   55  A    between atoms: _130  and  _131
REMARK   56  A    between atoms: _134  and  _136
REMARK   57  A    between atoms: _136  and  _137
REMARK   58  A    between atoms: _140  and  _142
REMARK   59  A    between atoms: _142  and  _143
REMARK   60  A    between atoms: _142  and  _145
REMARK   61  A    between atoms: _145  and  _146
REMARK   62  A    between atoms: _151  and  _153
REMARK   63  A    between atoms: _153  and  _154
REMARK   64  A    between atoms: _153  and  _156
REMARK   65  A    between atoms: _156  and  _157
REMARK   66  A    between atoms: _158  and  _160
REMARK   67  A    between atoms: _160  and  _161
REMARK   68  A    between atoms: _160  and  _163
REMARK   69  A    between atoms: _163  and  _164
REMARK   70  A    between atoms: _170  and  _172
REMARK   71  A    between atoms: _172  and  _173
REMARK   72  A    between atoms: _172  and  _175
REMARK   73  A    between atoms: _175  and  _176
REMARK   74  A    between atoms: _181  and  _182
REMARK   75  A    between atoms: _184  and  _186
REMARK   76  A    between atoms: _186  and  _187
REMARK   77  A    between atoms: _186  and  _189
REMARK   78  A    between atoms: _192  and  _194
REMARK   79  A    between atoms: _194  and  _195
REMARK   80  A    between atoms: _194  and  _197
REMARK   81  A    between atoms: _197  and  _198
REMARK   82  A    between atoms: _198  and  _199
REMARK   83  A    between atoms: _204  and  _206
REMARK   84  A    between atoms: _206  and  _207
REMARK   85  A    between atoms: _210  and  _212
REMARK   86  A    between atoms: _212  and  _213
REMARK   87  A    between atoms: _212  and  _215
REMARK   88  A    between atoms: _215  and  _216
REMARK   89  A    between atoms: _219  and  _221
REMARK   90  A    between atoms: _221  and  _222
REMARK   91  A    between atoms: _221  and  _224
REMARK   92  A    between atoms: _227  and  _229
REMARK   93  A    between atoms: _229  and  _230
REMARK   94  A    between atoms: _229  and  _232
REMARK   95  A    between atoms: _232  and  _233
REMARK   96  A    between atoms: _243  and  _245
REMARK   97  A    between atoms: _245  and  _246
REMARK   98  A    between atoms: _248  and  _250
REMARK   99  A    between atoms: _250  and  _251
REMARK  100  A    between atoms: _250  and  _253
REMARK  101  A    between atoms: _253  and  _254
REMARK  102  A    between atoms: _259  and  _260
REMARK  103  A    between atoms: _262  and  _264
REMARK  104  A    between atoms: _264  and  _265
REMARK  105  A    between atoms: _264  and  _267
REMARK  106  A    between atoms: _267  and  _268
REMARK  107  A    between atoms: _268  and  _269
REMARK  108  A    between atoms: _269  and  _270
REMARK  109  A    between atoms: _270  and  _271
REMARK  110  A    between atoms: _275  and  _277
REMARK  111  A    between atoms: _277  and  _278
REMARK  112  A    between atoms: _277  and  _280
REMARK  113  A    between atoms: _280  and  _281
REMARK  114  A    between atoms: _284  and  _286
REMARK  115  A    between atoms: _286  and  _287
REMARK  116  A    between atoms: _286  and  _289
REMARK  117  A    between atoms: _289  and  _290
REMARK  118  A    between atoms: _293  and  _295
REMARK  119  A    between atoms: _295  and  _296
REMARK  120  A    between atoms: _295  and  _298
REMARK  121  A    between atoms: _298  and  _299
REMARK  122  A    between atoms: _299  and  _300
REMARK  123  A    between atoms: _300  and  _301
REMARK  124  A    between atoms: _301  and  _302
REMARK  125  A    between atoms: _306  and  _308
REMARK  126  A    between atoms: _308  and  _309
REMARK  127  A    between atoms: _308  and  _311
REMARK  128  A    between atoms: _311  and  _312
REMARK  129  A    between atoms: _315  and  _317
REMARK  130  A    between atoms: _317  and  _318
REMARK  131  A    between atoms: _317  and  _320
REMARK  132  A    between atoms: _320  and  _321
REMARK  133  A    between atoms: _321  and  _322
REMARK  134  A    between atoms: _327  and  _329
REMARK  135  A    between atoms: _329  and  _330
REMARK  136  A    between atoms: _329  and  _332
REMARK  137  A    between atoms: _332  and  _333
REMARK  138  A    between atoms: _338  and  _339
REMARK  139  A    between atoms: _341  and  _343
REMARK  140  A    between atoms: _343  and  _344
REMARK  141  A    between atoms: _343  and  _346
REMARK  142  A    between atoms: _346  and  _347
REMARK  143  A    between atoms: _350  and  _352
REMARK  144  A    between atoms: _352  and  _353
REMARK  145  A    between atoms: _352  and  _355
REMARK  146  A    between atoms: _357  and  _359
REMARK  147  A    between atoms: _359  and  _360
REMARK  148  A    between atoms: _363  and  _365
REMARK  149  A    between atoms: _365  and  _366
REMARK  150  A    between atoms: _365  and  _368
REMARK  151  A    between atoms: _368  and  _369
REMARK  152  A    between atoms: _369  and  _370
REMARK  153  A    between atoms: _370  and  _371
REMARK  154  A    between atoms: _371  and  _372
REMARK  155  A    between atoms: _376  and  _378
REMARK  156  A    between atoms: _378  and  _379
REMARK  157  A    between atoms: _378  and  _381
REMARK  158  A    between atoms: _381  and  _382
REMARK  159  A    between atoms: _385  and  _387
REMARK  160  A    between atoms: _387  and  _388
REMARK  161  A    between atoms: _391  and  _393
REMARK  162  A    between atoms: _393  and  _394
REMARK  163  A    between atoms: _393  and  _396
REMARK  164  A    between atoms: _396  and  _397
REMARK  165  A    between atoms: _397  and  _511
REMARK  166  A    between atoms: _398  and  _400
REMARK  167  A    between atoms: _400  and  _401
REMARK  168  A    between atoms: _400  and  _403
REMARK  169  A    between atoms: _403  and  _404
REMARK  170  A    between atoms: _404  and  _405
REMARK  171  A    between atoms: _405  and  _406
REMARK  172  A    between atoms: _406  and  _407
REMARK  173  A    between atoms: _411  and  _413
REMARK  174  A    between atoms: _413  and  _414
REMARK  175  A    between atoms: _416  and  _418
REMARK  176  A    between atoms: _418  and  _419
REMARK  177  A    between atoms: _418  and  _421
REMARK  178  A    between atoms: _421  and  _422
REMARK  179  A    between atoms: _425  and  _427
REMARK  180  A    between atoms: _427  and  _428
REMARK  181  A    between atoms: _427  and  _430
REMARK  182  A    between atoms: _430  and  _431
REMARK  183  A    between atoms: _433  and  _435
REMARK  184  A    between atoms: _435  and  _436
REMARK  185  A    between atoms: _438  and  _440
REMARK  186  A    between atoms: _440  and  _441
REMARK  187  A    between atoms: _443  and  _445
REMARK  188  A    between atoms: _445  and  _446
REMARK  189  A    between atoms: _445  and  _448
REMARK  190  A    between atoms: _448  and  _449
REMARK  191  A    between atoms: _452  and  _454
REMARK  192  A    between atoms: _454  and  _455
REMARK  193  A    between atoms: _454  and  _457
REMARK  194  A    between atoms: _457  and  _458
REMARK  195  A    between atoms: _461  and  _463
REMARK  196  A    between atoms: _463  and  _464
REMARK  197  A    between atoms: _463  and  _466
REMARK  198  A    between atoms: _466  and  _467
REMARK  199  A    between atoms: _469  and  _471
REMARK  200  A    between atoms: _471  and  _472
REMARK  201  A    between atoms: _471  and  _474
REMARK  202  A    between atoms: _474  and  _475
REMARK  203  A    between atoms: _485  and  _487
REMARK  204  A    between atoms: _487  and  _488
REMARK  205  A    between atoms: _490  and  _492
REMARK  206  A    between atoms: _492  and  _493
REMARK  207  A    between atoms: _492  and  _495
REMARK  208  A    between atoms: _495  and  _496
REMARK  209  A    between atoms: _496  and  _497
REMARK  210  A    between atoms: _500  and  _502
REMARK  211  A    between atoms: _502  and  _503
REMARK  212  A    between atoms: _505  and  _507
REMARK  213  A    between atoms: _507  and  _508
REMARK  214  A    between atoms: _507  and  _510
REMARK  215  A    between atoms: _510  and  _511
REMARK  216  A    between atoms: _512  and  _514
REMARK  217  A    between atoms: _514  and  _515
REMARK  218  A    between atoms: _518  and  _520
REMARK  219  A    between atoms: _520  and  _521
REMARK  220  A    between atoms: _520  and  _523
REMARK  221  A    between atoms: _523  and  _524
REMARK  222  A    between atoms: _524  and  _525
REMARK  223  A    between atoms: _530  and  _532
REMARK  224  A    between atoms: _532  and  _533
REMARK  225  A    between atoms: _532  and  _535
REMARK  226  A    between atoms: _535  and  _536
REMARK  227  A    between atoms: _536  and  _537
REMARK  228  A    between atoms: _537  and  _538
REMARK  229  A    between atoms: _548  and  _549
REMARK  230  A    between atoms: _554  and  _556
REMARK  231  A    between atoms: _556  and  _557
REMARK  232  A    between atoms: _559  and  _561
REMARK  233  A    between atoms: _561  and  _562
REMARK  234  A    between atoms: _561  and  _564
REMARK  235  A    between atoms: _567  and  _569
REMARK  236  A    between atoms: _569  and  _570
REMARK  237  A    between atoms: _569  and  _572
REMARK  238  A    between atoms: _572  and  _573
REMARK  239  A    between atoms: _578  and  _579
REMARK  240  A    between atoms: _581  and  _583
REMARK  241  A    between atoms: _583  and  _584
REMARK  242  A    between atoms: _583  and  _586
REMARK  243  A    between atoms: _586  and  _587
REMARK                            x       y       z     vdW  Elec       q    Type
REMARK                         _______ _______ _______ _____ _____    ______ ____
ROOT
ATOM      1  O   HOH     1      44.899 -31.967  32.371  0.00  0.00    +0.000 OA
ENDROOT
TORSDOF 0
REMARK  Name = ../refined-set-2016/4x6o/4x6o_pocket.pdb
REMARK  243 active torsions:
REMARK  status: ('A' for Active; 'I' for Inactive)
REMARK    1  A    between atoms: _1  and  _5
REMARK    2  A    between atoms: _5  and  _6
REMARK    3  A    between atoms: _5  and  _8
REMARK    4  A    between atoms: _8  and  _9
REMARK    5  A    between atoms: _12  and  _14
REMARK    6  A    between atoms: _14  and  _15
REMARK    7  A    between atoms: _14  and  _17
REMARK    8  A    between atoms: _20  and  _22
REMARK    9  A    between atoms: _22  and  _23
REMARK   10  A    between atoms: _22  and  _25
REMARK   11  A    between atoms: _25  and  _26
REMARK   12  A    between atoms: _29  and  _31
REMARK   13  A    between atoms: _31  and  _32
REMARK   14  A    between atoms: _31  and  _34
REMARK   15  A    between atoms: _34  and  _35
REMARK   16  A    between atoms: _38  and  _40
REMARK   17  A    between atoms: _40  and  _41
REMARK   18  A    between atoms: _40  and  _43
REMARK   19  A    between atoms: _43  and  _44
REMARK   20  A    between atoms: _49  and  _51
REMARK   21  A    between atoms: _51  and  _52
REMARK   22  A    between atoms: _51  and  _54
REMARK   23  A    between atoms: _54  and  _55
REMARK   24  A    between atoms: _58  and  _60
REMARK   25  A    between atoms: _60  and  _61
REMARK   26  A    between atoms: _60  and  _63
REMARK   27  A    between atoms: _63  and  _64
REMARK   28  A    between atoms: _67  and  _69
REMARK   29  A    between atoms: _69  and  _70
REMARK   30  A    between atoms: _69  and  _72
REMARK   31  A    between atoms: _72  and  _73
REMARK   32  A    between atoms: _73  and  _74
REMARK   33  A    between atoms: _79  and  _81
REMARK   34  A    between atoms: _81  and  _82
REMARK   35  A    between atoms: _81  and  _84
REMARK   36  A    between atoms: _84  and  _85
REMARK   37  A    between atoms: _85  and  _86
REMARK   38  A    between atoms: _86  and  _87
REMARK   39  A    between atoms: _96  and  _98
REMARK   40  A    between atoms: _98  and  _99
REMARK   41  A    between atoms: _98  and  _101
REMARK   42  A    between atoms: _101  and  _102
REMARK   43  A    between atoms: _107  and  _109
REMARK   44  A    between atoms: _109  and  _110
REMARK   45  A    between atoms: _109  and  _112
REMARK   46  A    between atoms: _112  and  _113
REMARK   47  A    between atoms: _116  and  _118
REMARK   48  A    between atoms: _118  and  _119
REMARK   49  A    between atoms: _118  and  _121
REMARK   50  A    between atoms: _121  and  _122
REMARK   51  A    between atoms: _122  and  _157
REMARK   52  A    between atoms: _123  and  _125
REMARK   53  A    between atoms: _125  and  _126
REMARK   54  A    between atoms: _128  and  _130
REMARK   55  A    between atoms: _130  and  _131
REMARK   56  A    between atoms: _134  and  _136
REMARK   57  A    between atoms: _136  and  _137
REMARK   58  A    between atoms: _140  and  _142
REMARK   59  A    between atoms: _142  and  _143
REMARK   60  A    between atoms: _142  and  _145
REMARK   61  A    between atoms: _145  and  _146
REMARK   62  A    between atoms: _151  and  _153
REMARK   63  A    between atoms: _153  and  _154
REMARK   64  A    between atoms: _153  and  _156
REMARK   65  A    between atoms: _156  and  _157
REMARK   66  A    between atoms: _158  and  _160
REMARK   67  A    between atoms: _160  and  _161
REMARK   68  A    between atoms: _160  and  _163
REMARK   69  A    between atoms: _163  and  _164
REMARK   70  A    between atoms: _170  and  _172
REMARK   71  A    between atoms: _172  and  _173
REMARK   72  A    between atoms: _172  and  _175
REMARK   73  A    between atoms: _175  and  _176
REMARK   74  A    between atoms: _181  and  _182
REMARK   75  A    between atoms: _184  and  _186
REMARK   76  A    between atoms: _186  and  _187
REMARK   77  A    between atoms: _186  and  _189
REMARK   78  A    between atoms: _192  and  _194
REMARK   79  A    between atoms: _194  and  _195
REMARK   80  A    between atoms: _194  and  _197
REMARK   81  A    between atoms: _197  and  _198
REMARK   82  A    between atoms: _198  and  _199
REMARK   83  A    between atoms: _204  and  _206
REMARK   84  A    between atoms: _206  and  _207
REMARK   85  A    between atoms: _210  and  _212
REMARK   86  A    between atoms: _212  and  _213
REMARK   87  A    between atoms: _212  and  _215
REMARK   88  A    between atoms: _215  and  _216
REMARK   89  A    between atoms: _219  and  _221
REMARK   90  A    between atoms: _221  and  _222
REMARK   91  A    between atoms: _221  and  _224
REMARK   92  A    between atoms: _227  and  _229
REMARK   93  A    between atoms: _229  and  _230
REMARK   94  A    between atoms: _229  and  _232
REMARK   95  A    between atoms: _232  and  _233
REMARK   96  A    between atoms: _243  and  _245
REMARK   97  A    between atoms: _245  and  _246
REMARK   98  A    between atoms: _248  and  _250
REMARK   99  A    between atoms: _250  and  _251
REMARK  100  A    between atoms: _250  and  _253
REMARK  101  A    between atoms: _253  and  _254
REMARK  102  A    between atoms: _259  and  _260
REMARK  103  A    between atoms: _262  and  _264
REMARK  104  A    between atoms: _264  and  _265
REMARK  105  A    between atoms: _264  and  _267
REMARK  106  A    between atoms: _267  and  _268
REMARK  107  A    between atoms: _268  and  _269
REMARK  108  A    between atoms: _269  and  _270
REMARK  109  A    between atoms: _270  and  _271
REMARK  110  A    between atoms: _275  and  _277
REMARK  111  A    between atoms: _277  and  _278
REMARK  112  A    between atoms: _277  and  _280
REMARK  113  A    between atoms: _280  and  _281
REMARK  114  A    between atoms: _284  and  _286
REMARK  115  A    between atoms: _286  and  _287
REMARK  116  A    between atoms: _286  and  _289
REMARK  117  A    between atoms: _289  and  _290
REMARK  118  A    between atoms: _293  and  _295
REMARK  119  A    between atoms: _295  and  _296
REMARK  120  A    between atoms: _295  and  _298
REMARK  121  A    between atoms: _298  and  _299
REMARK  122  A    between atoms: _299  and  _300
REMARK  123  A    between atoms: _300  and  _301
REMARK  124  A    between atoms: _301  and  _302
REMARK  125  A    between atoms: _306  and  _308
REMARK  126  A    between atoms: _308  and  _309
REMARK  127  A    between atoms: _308  and  _311
REMARK  128  A    between atoms: _311  and  _312
REMARK  129  A    between atoms: _315  and  _317
REMARK  130  A    between atoms: _317  and  _318
REMARK  131  A    between atoms: _317  and  _320
REMARK  132  A    between atoms: _320  and  _321
REMARK  133  A    between atoms: _321  and  _322
REMARK  134  A    between atoms: _327  and  _329
REMARK  135  A    between atoms: _329  and  _330
REMARK  136  A    between atoms: _329  and  _332
REMARK  137  A    between atoms: _332  and  _333
REMARK  138  A    between atoms: _338  and  _339
REMARK  139  A    between atoms: _341  and  _343
REMARK  140  A    between atoms: _343  and  _344
REMARK  141  A    between atoms: _343  and  _346
REMARK  142  A    between atoms: _346  and  _347
REMARK  143  A    between atoms: _350  and  _352
REMARK  144  A    between atoms: _352  and  _353
REMARK  145  A    between atoms: _352  and  _355
REMARK  146  A    between atoms: _357  and  _359
REMARK  147  A    between atoms: _359  and  _360
REMARK  148  A    between atoms: _363  and  _365
REMARK  149  A    between atoms: _365  and  _366
REMARK  150  A    between atoms: _365  and  _368
REMARK  151  A    between atoms: _368  and  _369
REMARK  152  A    between atoms: _369  and  _370
REMARK  153  A    between atoms: _370  and  _371
REMARK  154  A    between atoms: _371  and  _372
REMARK  155  A    between atoms: _376  and  _378
REMARK  156  A    between atoms: _378  and  _379
REMARK  157  A    between atoms: _378  and  _381
REMARK  158  A    between atoms: _381  and  _382
REMARK  159  A    between atoms: _385  and  _387
REMARK  160  A    between atoms: _387  and  _388
REMARK  161  A    between atoms: _391  and  _393
REMARK  162  A    between atoms: _393  and  _394
REMARK  163  A    between atoms: _393  and  _396
REMARK  164  A    between atoms: _396  and  _397
REMARK  165  A    between atoms: _397  and  _511
REMARK  166  A    between atoms: _398  and  _400
REMARK  167  A    between atoms: _400  and  _401
REMARK  168  A    between atoms: _400  and  _403
REMARK  169  A    between atoms: _403  and  _404
REMARK  170  A    between atoms: _404  and  _405
REMARK  171  A    between atoms: _405  and  _406
REMARK  172  A    between atoms: _406  and  _407
REMARK  173  A    between atoms: _411  and  _413
REMARK  174  A    between atoms: _413  and  _414
REMARK  175  A    between atoms: _416  and  _418
REMARK  176  A    between atoms: _418  and  _419
REMARK  177  A    between atoms: _418  and  _421
REMARK  178  A    between atoms: _421  and  _422
REMARK  179  A    between atoms: _425  and  _427
REMARK  180  A    between atoms: _427  and  _428
REMARK  181  A    between atoms: _427  and  _430
REMARK  182  A    between atoms: _430  and  _431
REMARK  183  A    between atoms: _433  and  _435
REMARK  184  A    between atoms: _435  and  _436
REMARK  185  A    between atoms: _438  and  _440
REMARK  186  A    between atoms: _440  and  _441
REMARK  187  A    between atoms: _443  and  _445
REMARK  188  A    between atoms: _445  and  _446
REMARK  189  A    between atoms: _445  and  _448
REMARK  190  A    between atoms: _448  and  _449
REMARK  191  A    between atoms: _452  and  _454
REMARK  192  A    between atoms: _454  and  _455
REMARK  193  A    between atoms: _454  and  _457
REMARK  194  A    between atoms: _457  and  _458
REMARK  195  A    between atoms: _461  and  _463
REMARK  196  A    between atoms: _463  and  _464
REMARK  197  A    between atoms: _463  and  _466
REMARK  198  A    between atoms: _466  and  _467
REMARK  199  A    between atoms: _469  and  _471
REMARK  200  A    between atoms: _471  and  _472
REMARK  201  A    between atoms: _471  and  _474
REMARK  202  A    between atoms: _474  and  _475
REMARK  203  A    between atoms: _485  and  _487
REMARK  204  A    between atoms: _487  and  _488
REMARK  205  A    between atoms: _490  and  _492
REMARK  206  A    between atoms: _492  and  _493
REMARK  207  A    between atoms: _492  and  _495
REMARK  208  A    between atoms: _495  and  _496
REMARK  209  A    between atoms: _496  and  _497
REMARK  210  A    between atoms: _500  and  _502
REMARK  211  A    between atoms: _502  and  _503
REMARK  212  A    between atoms: _505  and  _507
REMARK  213  A    between atoms: _507  and  _508
REMARK  214  A    between atoms: _507  and  _510
REMARK  215  A    between atoms: _510  and  _511
REMARK  216  A    between atoms: _512  and  _514
REMARK  217  A    between atoms: _514  and  _515
REMARK  218  A    between atoms: _518  and  _520
REMARK  219  A    between atoms: _520  and  _521
REMARK  220  A    between atoms: _520  and  _523
REMARK  221  A    between atoms: _523  and  _524
REMARK  222  A    between atoms: _524  and  _525
REMARK  223  A    between atoms: _530  and  _532
REMARK  224  A    between atoms: _532  and  _533
REMARK  225  A    between atoms: _532  and  _535
REMARK  226  A    between atoms: _535  and  _536
REMARK  227  A    between atoms: _536  and  _537
REMARK  228  A    between atoms: _537  and  _538
REMARK  229  A    between atoms: _548  and  _549
REMARK  230  A    between atoms: _554  and  _556
REMARK  231  A    between atoms: _556  and  _557
REMARK  232  A    between atoms: _559  and  _561
REMARK  233  A    between atoms: _561  and  _562
REMARK  234  A    between atoms: _561  and  _564
REMARK  235  A    between atoms: _567  and  _569
REMARK  236  A    between atoms: _569  and  _570
REMARK  237  A    between atoms: _569  and  _572
REMARK  238  A    between atoms: _572  and  _573
REMARK  239  A    between atoms: _578  and  _579
REMARK  240  A    between atoms: _581  and  _583
REMARK  241  A    between atoms: _583  and  _584
REMARK  242  A    between atoms: _583  and  _586
REMARK  243  A    between atoms: _586  and  _587
REMARK                            x       y       z     vdW  Elec       q    Type
REMARK                         _______ _______ _______ _____ _____    ______ ____
ROOT
ATOM      1  O   HOH     1      50.009 -22.075  40.987  0.00  0.00    +0.000 OA
ENDROOT
TORSDOF 0
REMARK  Name = ../refined-set-2016/4x6o/4x6o_pocket.pdb
REMARK  243 active torsions:
REMARK  status: ('A' for Active; 'I' for Inactive)
REMARK    1  A    between atoms: _1  and  _5
REMARK    2  A    between atoms: _5  and  _6
REMARK    3  A    between atoms: _5  and  _8
REMARK    4  A    between atoms: _8  and  _9
REMARK    5  A    between atoms: _12  and  _14
REMARK    6  A    between atoms: _14  and  _15
REMARK    7  A    between atoms: _14  and  _17
REMARK    8  A    between atoms: _20  and  _22
REMARK    9  A    between atoms: _22  and  _23
REMARK   10  A    between atoms: _22  and  _25
REMARK   11  A    between atoms: _25  and  _26
REMARK   12  A    between atoms: _29  and  _31
REMARK   13  A    between atoms: _31  and  _32
REMARK   14  A    between atoms: _31  and  _34
REMARK   15  A    between atoms: _34  and  _35
REMARK   16  A    between atoms: _38  and  _40
REMARK   17  A    between atoms: _40  and  _41
REMARK   18  A    between atoms: _40  and  _43
REMARK   19  A    between atoms: _43  and  _44
REMARK   20  A    between atoms: _49  and  _51
REMARK   21  A    between atoms: _51  and  _52
REMARK   22  A    between atoms: _51  and  _54
REMARK   23  A    between atoms: _54  and  _55
REMARK   24  A    between atoms: _58  and  _60
REMARK   25  A    between atoms: _60  and  _61
REMARK   26  A    between atoms: _60  and  _63
REMARK   27  A    between atoms: _63  and  _64
REMARK   28  A    between atoms: _67  and  _69
REMARK   29  A    between atoms: _69  and  _70
REMARK   30  A    between atoms: _69  and  _72
REMARK   31  A    between atoms: _72  and  _73
REMARK   32  A    between atoms: _73  and  _74
REMARK   33  A    between atoms: _79  and  _81
REMARK   34  A    between atoms: _81  and  _82
REMARK   35  A    between atoms: _81  and  _84
REMARK   36  A    between atoms: _84  and  _85
REMARK   37  A    between atoms: _85  and  _86
REMARK   38  A    between atoms: _86  and  _87
REMARK   39  A    between atoms: _96  and  _98
REMARK   40  A    between atoms: _98  and  _99
REMARK   41  A    between atoms: _98  and  _101
REMARK   42  A    between atoms: _101  and  _102
REMARK   43  A    between atoms: _107  and  _109
REMARK   44  A    between atoms: _109  and  _110
REMARK   45  A    between atoms: _109  and  _112
REMARK   46  A    between atoms: _112  and  _113
REMARK   47  A    between atoms: _116  and  _118
REMARK   48  A    between atoms: _118  and  _119
REMARK   49  A    between atoms: _118  and  _121
REMARK   50  A    between atoms: _121  and  _122
REMARK   51  A    between atoms: _122  and  _157
REMARK   52  A    between atoms: _123  and  _125
REMARK   53  A    between atoms: _125  and  _126
REMARK   54  A    between atoms: _128  and  _130
REMARK   55  A    between atoms: _130  and  _131
REMARK   56  A    between atoms: _134  and  _136
REMARK   57  A    between atoms: _136  and  _137
REMARK   58  A    between atoms: _140  and  _142
REMARK   59  A    between atoms: _142  and  _143
REMARK   60  A    between atoms: _142  and  _145
REMARK   61  A    between atoms: _145  and  _146
REMARK   62  A    between atoms: _151  and  _153
REMARK   63  A    between atoms: _153  and  _154
REMARK   64  A    between atoms: _153  and  _156
REMARK   65  A    between atoms: _156  and  _157
REMARK   66  A    between atoms: _158  and  _160
REMARK   67  A    between atoms: _160  and  _161
REMARK   68  A    between atoms: _160  and  _163
REMARK   69  A    between atoms: _163  and  _164
REMARK   70  A    between atoms: _170  and  _172
REMARK   71  A    between atoms: _172  and  _173
REMARK   72  A    between atoms: _172  and  _175
REMARK   73  A    between atoms: _175  and  _176
REMARK   74  A    between atoms: _181  and  _182
REMARK   75  A    between atoms: _184  and  _186
REMARK   76  A    between atoms: _186  and  _187
REMARK   77  A    between atoms: _186  and  _189
REMARK   78  A    between atoms: _192  and  _194
REMARK   79  A    between atoms: _194  and  _195
REMARK   80  A    between atoms: _194  and  _197
REMARK   81  A    between atoms: _197  and  _198
REMARK   82  A    between atoms: _198  and  _199
REMARK   83  A    between atoms: _204  and  _206
REMARK   84  A    between atoms: _206  and  _207
REMARK   85  A    between atoms: _210  and  _212
REMARK   86  A    between atoms: _212  and  _213
REMARK   87  A    between atoms: _212  and  _215
REMARK   88  A    between atoms: _215  and  _216
REMARK   89  A    between atoms: _219  and  _221
REMARK   90  A    between atoms: _221  and  _222
REMARK   91  A    between atoms: _221  and  _224
REMARK   92  A    between atoms: _227  and  _229
REMARK   93  A    between atoms: _229  and  _230
REMARK   94  A    between atoms: _229  and  _232
REMARK   95  A    between atoms: _232  and  _233
REMARK   96  A    between atoms: _243  and  _245
REMARK   97  A    between atoms: _245  and  _246
REMARK   98  A    between atoms: _248  and  _250
REMARK   99  A    between atoms: _250  and  _251
REMARK  100  A    between atoms: _250  and  _253
REMARK  101  A    between atoms: _253  and  _254
REMARK  102  A    between atoms: _259  and  _260
REMARK  103  A    between atoms: _262  and  _264
REMARK  104  A    between atoms: _264  and  _265
REMARK  105  A    between atoms: _264  and  _267
REMARK  106  A    between atoms: _267  and  _268
REMARK  107  A    between atoms: _268  and  _269
REMARK  108  A    between atoms: _269  and  _270
REMARK  109  A    between atoms: _270  and  _271
REMARK  110  A    between atoms: _275  and  _277
REMARK  111  A    between atoms: _277  and  _278
REMARK  112  A    between atoms: _277  and  _280
REMARK  113  A    between atoms: _280  and  _281
REMARK  114  A    between atoms: _284  and  _286
REMARK  115  A    between atoms: _286  and  _287
REMARK  116  A    between atoms: _286  and  _289
REMARK  117  A    between atoms: _289  and  _290
REMARK  118  A    between atoms: _293  and  _295
REMARK  119  A    between atoms: _295  and  _296
REMARK  120  A    between atoms: _295  and  _298
REMARK  121  A    between atoms: _298  and  _299
REMARK  122  A    between atoms: _299  and  _300
REMARK  123  A    between atoms: _300  and  _301
REMARK  124  A    between atoms: _301  and  _302
REMARK  125  A    between atoms: _306  and  _308
REMARK  126  A    between atoms: _308  and  _309
REMARK  127  A    between atoms: _308  and  _311
REMARK  128  A    between atoms: _311  and  _312
REMARK  129  A    between atoms: _315  and  _317
REMARK  130  A    between atoms: _317  and  _318
REMARK  131  A    between atoms: _317  and  _320
REMARK  132  A    between atoms: _320  and  _321
REMARK  133  A    between atoms: _321  and  _322
REMARK  134  A    between atoms: _327  and  _329
REMARK  135  A    between atoms: _329  and  _330
REMARK  136  A    between atoms: _329  and  _332
REMARK  137  A    between atoms: _332  and  _333
REMARK  138  A    between atoms: _338  and  _339
REMARK  139  A    between atoms: _341  and  _343
REMARK  140  A    between atoms: _343  and  _344
REMARK  141  A    between atoms: _343  and  _346
REMARK  142  A    between atoms: _346  and  _347
REMARK  143  A    between atoms: _350  and  _352
REMARK  144  A    between atoms: _352  and  _353
REMARK  145  A    between atoms: _352  and  _355
REMARK  146  A    between atoms: _357  and  _359
REMARK  147  A    between atoms: _359  and  _360
REMARK  148  A    between atoms: _363  and  _365
REMARK  149  A    between atoms: _365  and  _366
REMARK  150  A    between atoms: _365  and  _368
REMARK  151  A    between atoms: _368  and  _369
REMARK  152  A    between atoms: _369  and  _370
REMARK  153  A    between atoms: _370  and  _371
REMARK  154  A    between atoms: _371  and  _372
REMARK  155  A    between atoms: _376  and  _378
REMARK  156  A    between atoms: _378  and  _379
REMARK  157  A    between atoms: _378  and  _381
REMARK  158  A    between atoms: _381  and  _382
REMARK  159  A    between atoms: _385  and  _387
REMARK  160  A    between atoms: _387  and  _388
REMARK  161  A    between atoms: _391  and  _393
REMARK  162  A    between atoms: _393  and  _394
REMARK  163  A    between atoms: _393  and  _396
REMARK  164  A    between atoms: _396  and  _397
REMARK  165  A    between atoms: _397  and  _511
REMARK  166  A    between atoms: _398  and  _400
REMARK  167  A    between atoms: _400  and  _401
REMARK  168  A    between atoms: _400  and  _403
REMARK  169  A    between atoms: _403  and  _404
REMARK  170  A    between atoms: _404  and  _405
REMARK  171  A    between atoms: _405  and  _406
REMARK  172  A    between atoms: _406  and  _407
REMARK  173  A    between atoms: _411  and  _413
REMARK  174  A    between atoms: _413  and  _414
REMARK  175  A    between atoms: _416  and  _418
REMARK  176  A    between atoms: _418  and  _419
REMARK  177  A    between atoms: _418  and  _421
REMARK  178  A    between atoms: _421  and  _422
REMARK  179  A    between atoms: _425  and  _427
REMARK  180  A    between atoms: _427  and  _428
REMARK  181  A    between atoms: _427  and  _430
REMARK  182  A    between atoms: _430  and  _431
REMARK  183  A    between atoms: _433  and  _435
REMARK  184  A    between atoms: _435  and  _436
REMARK  185  A    between atoms: _438  and  _440
REMARK  186  A    between atoms: _440  and  _441
REMARK  187  A    between atoms: _443  and  _445
REMARK  188  A    between atoms: _445  and  _446
REMARK  189  A    between atoms: _445  and  _448
REMARK  190  A    between atoms: _448  and  _449
REMARK  191  A    between atoms: _452  and  _454
REMARK  192  A    between atoms: _454  and  _455
REMARK  193  A    between atoms: _454  and  _457
REMARK  194  A    between atoms: _457  and  _458
REMARK  195  A    between atoms: _461  and  _463
REMARK  196  A    between atoms: _463  and  _464
REMARK  197  A    between atoms: _463  and  _466
REMARK  198  A    between atoms: _466  and  _467
REMARK  199  A    between atoms: _469  and  _471
REMARK  200  A    between atoms: _471  and  _472
REMARK  201  A    between atoms: _471  and  _474
REMARK  202  A    between atoms: _474  and  _475
REMARK  203  A    between atoms: _485  and  _487
REMARK  204  A    between atoms: _487  and  _488
REMARK  205  A    between atoms: _490  and  _492
REMARK  206  A    between atoms: _492  and  _493
REMARK  207  A    between atoms: _492  and  _495
REMARK  208  A    between atoms: _495  and  _496
REMARK  209  A    between atoms: _496  and  _497
REMARK  210  A    between atoms: _500  and  _502
REMARK  211  A    between atoms: _502  and  _503
REMARK  212  A    between atoms: _505  and  _507
REMARK  213  A    between atoms: _507  and  _508
REMARK  214  A    between atoms: _507  and  _510
REMARK  215  A    between atoms: _510  and  _511
REMARK  216  A    between atoms: _512  and  _514
REMARK  217  A    between atoms: _514  and  _515
REMARK  218  A    between atoms: _518  and  _520
REMARK  219  A    between atoms: _520  and  _521
REMARK  220  A    between atoms: _520  and  _523
REMARK  221  A    between atoms: _523  and  _524
REMARK  222  A    between atoms: _524  and  _525
REMARK  223  A    between atoms: _530  and  _532
REMARK  224  A    between atoms: _532  and  _533
REMARK  225  A    between atoms: _532  and  _535
REMARK  226  A    between atoms: _535  and  _536
REMARK  227  A    between atoms: _536  and  _537
REMARK  228  A    between atoms: _537  and  _538
REMARK  229  A    between atoms: _548  and  _549
REMARK  230  A    between atoms: _554  and  _556
REMARK  231  A    between atoms: _556  and  _557
REMARK  232  A    between atoms: _559  and  _561
REMARK  233  A    between atoms: _561  and  _562
REMARK  234  A    between atoms: _561  and  _564
REMARK  235  A    between atoms: _567  and  _569
REMARK  236  A    between atoms: _569  and  _570
REMARK  237  A    between atoms: _569  and  _572
REMARK  238  A    between atoms: _572  and  _573
REMARK  239  A    between atoms: _578  and  _579
REMARK  240  A    between atoms: _581  and  _583
REMARK  241  A    between atoms: _583  and  _584
REMARK  242  A    between atoms: _583  and  _586
REMARK  243  A    between atoms: _586  and  _587
REMARK                            x       y       z     vdW  Elec       q    Type
REMARK                         _______ _______ _______ _____ _____    ______ ____
ROOT
ATOM      1  O   HOH     1      50.449 -16.465  25.584  0.00  0.00    +0.000 OA
ENDROOT
TORSDOF 0
REMARK  Name = ../refined-set-2016/4x6o/4x6o_pocket.pdb
REMARK  243 active torsions:
REMARK  status: ('A' for Active; 'I' for Inactive)
REMARK    1  A    between atoms: _1  and  _5
REMARK    2  A    between atoms: _5  and  _6
REMARK    3  A    between atoms: _5  and  _8
REMARK    4  A    between atoms: _8  and  _9
REMARK    5  A    between atoms: _12  and  _14
REMARK    6  A    between atoms: _14  and  _15
REMARK    7  A    between atoms: _14  and  _17
REMARK    8  A    between atoms: _20  and  _22
REMARK    9  A    between atoms: _22  and  _23
REMARK   10  A    between atoms: _22  and  _25
REMARK   11  A    between atoms: _25  and  _26
REMARK   12  A    between atoms: _29  and  _31
REMARK   13  A    between atoms: _31  and  _32
REMARK   14  A    between atoms: _31  and  _34
REMARK   15  A    between atoms: _34  and  _35
REMARK   16  A    between atoms: _38  and  _40
REMARK   17  A    between atoms: _40  and  _41
REMARK   18  A    between atoms: _40  and  _43
REMARK   19  A    between atoms: _43  and  _44
REMARK   20  A    between atoms: _49  and  _51
REMARK   21  A    between atoms: _51  and  _52
REMARK   22  A    between atoms: _51  and  _54
REMARK   23  A    between atoms: _54  and  _55
REMARK   24  A    between atoms: _58  and  _60
REMARK   25  A    between atoms: _60  and  _61
REMARK   26  A    between atoms: _60  and  _63
REMARK   27  A    between atoms: _63  and  _64
REMARK   28  A    between atoms: _67  and  _69
REMARK   29  A    between atoms: _69  and  _70
REMARK   30  A    between atoms: _69  and  _72
REMARK   31  A    between atoms: _72  and  _73
REMARK   32  A    between atoms: _73  and  _74
REMARK   33  A    between atoms: _79  and  _81
REMARK   34  A    between atoms: _81  and  _82
REMARK   35  A    between atoms: _81  and  _84
REMARK   36  A    between atoms: _84  and  _85
REMARK   37  A    between atoms: _85  and  _86
REMARK   38  A    between atoms: _86  and  _87
REMARK   39  A    between atoms: _96  and  _98
REMARK   40  A    between atoms: _98  and  _99
REMARK   41  A    between atoms: _98  and  _101
REMARK   42  A    between atoms: _101  and  _102
REMARK   43  A    between atoms: _107  and  _109
REMARK   44  A    between atoms: _109  and  _110
REMARK   45  A    between atoms: _109  and  _112
REMARK   46  A    between atoms: _112  and  _113
REMARK   47  A    between atoms: _116  and  _118
REMARK   48  A    between atoms: _118  and  _119
REMARK   49  A    between atoms: _118  and  _121
REMARK   50  A    between atoms: _121  and  _122
REMARK   51  A    between atoms: _122  and  _157
REMARK   52  A    between atoms: _123  and  _125
REMARK   53  A    between atoms: _125  and  _126
REMARK   54  A    between atoms: _128  and  _130
REMARK   55  A    between atoms: _130  and  _131
REMARK   56  A    between atoms: _134  and  _136
REMARK   57  A    between atoms: _136  and  _137
REMARK   58  A    between atoms: _140  and  _142
REMARK   59  A    between atoms: _142  and  _143
REMARK   60  A    between atoms: _142  and  _145
REMARK   61  A    between atoms: _145  and  _146
REMARK   62  A    between atoms: _151  and  _153
REMARK   63  A    between atoms: _153  and  _154
REMARK   64  A    between atoms: _153  and  _156
REMARK   65  A    between atoms: _156  and  _157
REMARK   66  A    between atoms: _158  and  _160
REMARK   67  A    between atoms: _160  and  _161
REMARK   68  A    between atoms: _160  and  _163
REMARK   69  A    between atoms: _163  and  _164
REMARK   70  A    between atoms: _170  and  _172
REMARK   71  A    between atoms: _172  and  _173
REMARK   72  A    between atoms: _172  and  _175
REMARK   73  A    between atoms: _175  and  _176
REMARK   74  A    between atoms: _181  and  _182
REMARK   75  A    between atoms: _184  and  _186
REMARK   76  A    between atoms: _186  and  _187
REMARK   77  A    between atoms: _186  and  _189
REMARK   78  A    between atoms: _192  and  _194
REMARK   79  A    between atoms: _194  and  _195
REMARK   80  A    between atoms: _194  and  _197
REMARK   81  A    between atoms: _197  and  _198
REMARK   82  A    between atoms: _198  and  _199
REMARK   83  A    between atoms: _204  and  _206
REMARK   84  A    between atoms: _206  and  _207
REMARK   85  A    between atoms: _210  and  _212
REMARK   86  A    between atoms: _212  and  _213
REMARK   87  A    between atoms: _212  and  _215
REMARK   88  A    between atoms: _215  and  _216
REMARK   89  A    between atoms: _219  and  _221
REMARK   90  A    between atoms: _221  and  _222
REMARK   91  A    between atoms: _221  and  _224
REMARK   92  A    between atoms: _227  and  _229
REMARK   93  A    between atoms: _229  and  _230
REMARK   94  A    between atoms: _229  and  _232
REMARK   95  A    between atoms: _232  and  _233
REMARK   96  A    between atoms: _243  and  _245
REMARK   97  A    between atoms: _245  and  _246
REMARK   98  A    between atoms: _248  and  _250
REMARK   99  A    between atoms: _250  and  _251
REMARK  100  A    between atoms: _250  and  _253
REMARK  101  A    between atoms: _253  and  _254
REMARK  102  A    between atoms: _259  and  _260
REMARK  103  A    between atoms: _262  and  _264
REMARK  104  A    between atoms: _264  and  _265
REMARK  105  A    between atoms: _264  and  _267
REMARK  106  A    between atoms: _267  and  _268
REMARK  107  A    between atoms: _268  and  _269
REMARK  108  A    between atoms: _269  and  _270
REMARK  109  A    between atoms: _270  and  _271
REMARK  110  A    between atoms: _275  and  _277
REMARK  111  A    between atoms: _277  and  _278
REMARK  112  A    between atoms: _277  and  _280
REMARK  113  A    between atoms: _280  and  _281
REMARK  114  A    between atoms: _284  and  _286
REMARK  115  A    between atoms: _286  and  _287
REMARK  116  A    between atoms: _286  and  _289
REMARK  117  A    between atoms: _289  and  _290
REMARK  118  A    between atoms: _293  and  _295
REMARK  119  A    between atoms: _295  and  _296
REMARK  120  A    between atoms: _295  and  _298
REMARK  121  A    between atoms: _298  and  _299
REMARK  122  A    between atoms: _299  and  _300
REMARK  123  A    between atoms: _300  and  _301
REMARK  124  A    between atoms: _301  and  _302
REMARK  125  A    between atoms: _306  and  _308
REMARK  126  A    between atoms: _308  and  _309
REMARK  127  A    between atoms: _308  and  _311
REMARK  128  A    between atoms: _311  and  _312
REMARK  129  A    between atoms: _315  and  _317
REMARK  130  A    between atoms: _317  and  _318
REMARK  131  A    between atoms: _317  and  _320
REMARK  132  A    between atoms: _320  and  _321
REMARK  133  A    between atoms: _321  and  _322
REMARK  134  A    between atoms: _327  and  _329
REMARK  135  A    between atoms: _329  and  _330
REMARK  136  A    between atoms: _329  and  _332
REMARK  137  A    between atoms: _332  and  _333
REMARK  138  A    between atoms: _338  and  _339
REMARK  139  A    between atoms: _341  and  _343
REMARK  140  A    between atoms: _343  and  _344
REMARK  141  A    between atoms: _343  and  _346
REMARK  142  A    between atoms: _346  and  _347
REMARK  143  A    between atoms: _350  and  _352
REMARK  144  A    between atoms: _352  and  _353
REMARK  145  A    between atoms: _352  and  _355
REMARK  146  A    between atoms: _357  and  _359
REMARK  147  A    between atoms: _359  and  _360
REMARK  148  A    between atoms: _363  and  _365
REMARK  149  A    between atoms: _365  and  _366
REMARK  150  A    between atoms: _365  and  _368
REMARK  151  A    between atoms: _368  and  _369
REMARK  152  A    between atoms: _369  and  _370
REMARK  153  A    between atoms: _370  and  _371
REMARK  154  A    between atoms: _371  and  _372
REMARK  155  A    between atoms: _376  and  _378
REMARK  156  A    between atoms: _378  and  _379
REMARK  157  A    between atoms: _378  and  _381
REMARK  158  A    between atoms: _381  and  _382
REMARK  159  A    between atoms: _385  and  _387
REMARK  160  A    between atoms: _387  and  _388
REMARK  161  A    between atoms: _391  and  _393
REMARK  162  A    between atoms: _393  and  _394
REMARK  163  A    between atoms: _393  and  _396
REMARK  164  A    between atoms: _396  and  _397
REMARK  165  A    between atoms: _397  and  _511
REMARK  166  A    between atoms: _398  and  _400
REMARK  167  A    between atoms: _400  and  _401
REMARK  168  A    between atoms: _400  and  _403
REMARK  169  A    between atoms: _403  and  _404
REMARK  170  A    between atoms: _404  and  _405
REMARK  171  A    between atoms: _405  and  _406
REMARK  172  A    between atoms: _406  and  _407
REMARK  173  A    between atoms: _411  and  _413
REMARK  174  A    between atoms: _413  and  _414
REMARK  175  A    between atoms: _416  and  _418
REMARK  176  A    between atoms: _418  and  _419
REMARK  177  A    between atoms: _418  and  _421
REMARK  178  A    between atoms: _421  and  _422
REMARK  179  A    between atoms: _425  and  _427
REMARK  180  A    between atoms: _427  and  _428
REMARK  181  A    between atoms: _427  and  _430
REMARK  182  A    between atoms: _430  and  _431
REMARK  183  A    between atoms: _433  and  _435
REMARK  184  A    between atoms: _435  and  _436
REMARK  185  A    between atoms: _438  and  _440
REMARK  186  A    between atoms: _440  and  _441
REMARK  187  A    between atoms: _443  and  _445
REMARK  188  A    between atoms: _445  and  _446
REMARK  189  A    between atoms: _445  and  _448
REMARK  190  A    between atoms: _448  and  _449
REMARK  191  A    between atoms: _452  and  _454
REMARK  192  A    between atoms: _454  and  _455
REMARK  193  A    between atoms: _454  and  _457
REMARK  194  A    between atoms: _457  and  _458
REMARK  195  A    between atoms: _461  and  _463
REMARK  196  A    between atoms: _463  and  _464
REMARK  197  A    between atoms: _463  and  _466
REMARK  198  A    between atoms: _466  and  _467
REMARK  199  A    between atoms: _469  and  _471
REMARK  200  A    between atoms: _471  and  _472
REMARK  201  A    between atoms: _471  and  _474
REMARK  202  A    between atoms: _474  and  _475
REMARK  203  A    between atoms: _485  and  _487
REMARK  204  A    between atoms: _487  and  _488
REMARK  205  A    between atoms: _490  and  _492
REMARK  206  A    between atoms: _492  and  _493
REMARK  207  A    between atoms: _492  and  _495
REMARK  208  A    between atoms: _495  and  _496
REMARK  209  A    between atoms: _496  and  _497
REMARK  210  A    between atoms: _500  and  _502
REMARK  211  A    between atoms: _502  and  _503
REMARK  212  A    between atoms: _505  and  _507
REMARK  213  A    between atoms: _507  and  _508
REMARK  214  A    between atoms: _507  and  _510
REMARK  215  A    between atoms: _510  and  _511
REMARK  216  A    between atoms: _512  and  _514
REMARK  217  A    between atoms: _514  and  _515
REMARK  218  A    between atoms: _518  and  _520
REMARK  219  A    between atoms: _520  and  _521
REMARK  220  A    between atoms: _520  and  _523
REMARK  221  A    between atoms: _523  and  _524
REMARK  222  A    between atoms: _524  and  _525
REMARK  223  A    between atoms: _530  and  _532
REMARK  224  A    between atoms: _532  and  _533
REMARK  225  A    between atoms: _532  and  _535
REMARK  226  A    between atoms: _535  and  _536
REMARK  227  A    between atoms: _536  and  _537
REMARK  228  A    between atoms: _537  and  _538
REMARK  229  A    between atoms: _548  and  _549
REMARK  230  A    between atoms: _554  and  _556
REMARK  231  A    between atoms: _556  and  _557
REMARK  232  A    between atoms: _559  and  _561
REMARK  233  A    between atoms: _561  and  _562
REMARK  234  A    between atoms: _561  and  _564
REMARK  235  A    between atoms: _567  and  _569
REMARK  236  A    between atoms: _569  and  _570
REMARK  237  A    between atoms: _569  and  _572
REMARK  238  A    between atoms: _572  and  _573
REMARK  239  A    between atoms: _578  and  _579
REMARK  240  A    between atoms: _581  and  _583
REMARK  241  A    between atoms: _583  and  _584
REMARK  242  A    between atoms: _583  and  _586
REMARK  243  A    between atoms: _586  and  _587
REMARK                            x       y       z     vdW  Elec       q    Type
REMARK                         _______ _______ _______ _____ _____    ______ ____
ROOT
ATOM      1  O   HOH     1      48.715 -22.528  28.162  0.00  0.00    +0.000 OA
ENDROOT
TORSDOF 0
REMARK  Name = ../refined-set-2016/4x6o/4x6o_pocket.pdb
REMARK  243 active torsions:
REMARK  status: ('A' for Active; 'I' for Inactive)
REMARK    1  A    between atoms: _1  and  _5
REMARK    2  A    between atoms: _5  and  _6
REMARK    3  A    between atoms: _5  and  _8
REMARK    4  A    between atoms: _8  and  _9
REMARK    5  A    between atoms: _12  and  _14
REMARK    6  A    between atoms: _14  and  _15
REMARK    7  A    between atoms: _14  and  _17
REMARK    8  A    between atoms: _20  and  _22
REMARK    9  A    between atoms: _22  and  _23
REMARK   10  A    between atoms: _22  and  _25
REMARK   11  A    between atoms: _25  and  _26
REMARK   12  A    between atoms: _29  and  _31
REMARK   13  A    between atoms: _31  and  _32
REMARK   14  A    between atoms: _31  and  _34
REMARK   15  A    between atoms: _34  and  _35
REMARK   16  A    between atoms: _38  and  _40
REMARK   17  A    between atoms: _40  and  _41
REMARK   18  A    between atoms: _40  and  _43
REMARK   19  A    between atoms: _43  and  _44
REMARK   20  A    between atoms: _49  and  _51
REMARK   21  A    between atoms: _51  and  _52
REMARK   22  A    between atoms: _51  and  _54
REMARK   23  A    between atoms: _54  and  _55
REMARK   24  A    between atoms: _58  and  _60
REMARK   25  A    between atoms: _60  and  _61
REMARK   26  A    between atoms: _60  and  _63
REMARK   27  A    between atoms: _63  and  _64
REMARK   28  A    between atoms: _67  and  _69
REMARK   29  A    between atoms: _69  and  _70
REMARK   30  A    between atoms: _69  and  _72
REMARK   31  A    between atoms: _72  and  _73
REMARK   32  A    between atoms: _73  and  _74
REMARK   33  A    between atoms: _79  and  _81
REMARK   34  A    between atoms: _81  and  _82
REMARK   35  A    between atoms: _81  and  _84
REMARK   36  A    between atoms: _84  and  _85
REMARK   37  A    between atoms: _85  and  _86
REMARK   38  A    between atoms: _86  and  _87
REMARK   39  A    between atoms: _96  and  _98
REMARK   40  A    between atoms: _98  and  _99
REMARK   41  A    between atoms: _98  and  _101
REMARK   42  A    between atoms: _101  and  _102
REMARK   43  A    between atoms: _107  and  _109
REMARK   44  A    between atoms: _109  and  _110
REMARK   45  A    between atoms: _109  and  _112
REMARK   46  A    between atoms: _112  and  _113
REMARK   47  A    between atoms: _116  and  _118
REMARK   48  A    between atoms: _118  and  _119
REMARK   49  A    between atoms: _118  and  _121
REMARK   50  A    between atoms: _121  and  _122
REMARK   51  A    between atoms: _122  and  _157
REMARK   52  A    between atoms: _123  and  _125
REMARK   53  A    between atoms: _125  and  _126
REMARK   54  A    between atoms: _128  and  _130
REMARK   55  A    between atoms: _130  and  _131
REMARK   56  A    between atoms: _134  and  _136
REMARK   57  A    between atoms: _136  and  _137
REMARK   58  A    between atoms: _140  and  _142
REMARK   59  A    between atoms: _142  and  _143
REMARK   60  A    between atoms: _142  and  _145
REMARK   61  A    between atoms: _145  and  _146
REMARK   62  A    between atoms: _151  and  _153
REMARK   63  A    between atoms: _153  and  _154
REMARK   64  A    between atoms: _153  and  _156
REMARK   65  A    between atoms: _156  and  _157
REMARK   66  A    between atoms: _158  and  _160
REMARK   67  A    between atoms: _160  and  _161
REMARK   68  A    between atoms: _160  and  _163
REMARK   69  A    between atoms: _163  and  _164
REMARK   70  A    between atoms: _170  and  _172
REMARK   71  A    between atoms: _172  and  _173
REMARK   72  A    between atoms: _172  and  _175
REMARK   73  A    between atoms: _175  and  _176
REMARK   74  A    between atoms: _181  and  _182
REMARK   75  A    between atoms: _184  and  _186
REMARK   76  A    between atoms: _186  and  _187
REMARK   77  A    between atoms: _186  and  _189
REMARK   78  A    between atoms: _192  and  _194
REMARK   79  A    between atoms: _194  and  _195
REMARK   80  A    between atoms: _194  and  _197
REMARK   81  A    between atoms: _197  and  _198
REMARK   82  A    between atoms: _198  and  _199
REMARK   83  A    between atoms: _204  and  _206
REMARK   84  A    between atoms: _206  and  _207
REMARK   85  A    between atoms: _210  and  _212
REMARK   86  A    between atoms: _212  and  _213
REMARK   87  A    between atoms: _212  and  _215
REMARK   88  A    between atoms: _215  and  _216
REMARK   89  A    between atoms: _219  and  _221
REMARK   90  A    between atoms: _221  and  _222
REMARK   91  A    between atoms: _221  and  _224
REMARK   92  A    between atoms: _227  and  _229
REMARK   93  A    between atoms: _229  and  _230
REMARK   94  A    between atoms: _229  and  _232
REMARK   95  A    between atoms: _232  and  _233
REMARK   96  A    between atoms: _243  and  _245
REMARK   97  A    between atoms: _245  and  _246
REMARK   98  A    between atoms: _248  and  _250
REMARK   99  A    between atoms: _250  and  _251
REMARK  100  A    between atoms: _250  and  _253
REMARK  101  A    between atoms: _253  and  _254
REMARK  102  A    between atoms: _259  and  _260
REMARK  103  A    between atoms: _262  and  _264
REMARK  104  A    between atoms: _264  and  _265
REMARK  105  A    between atoms: _264  and  _267
REMARK  106  A    between atoms: _267  and  _268
REMARK  107  A    between atoms: _268  and  _269
REMARK  108  A    between atoms: _269  and  _270
REMARK  109  A    between atoms: _270  and  _271
REMARK  110  A    between atoms: _275  and  _277
REMARK  111  A    between atoms: _277  and  _278
REMARK  112  A    between atoms: _277  and  _280
REMARK  113  A    between atoms: _280  and  _281
REMARK  114  A    between atoms: _284  and  _286
REMARK  115  A    between atoms: _286  and  _287
REMARK  116  A    between atoms: _286  and  _289
REMARK  117  A    between atoms: _289  and  _290
REMARK  118  A    between atoms: _293  and  _295
REMARK  119  A    between atoms: _295  and  _296
REMARK  120  A    between atoms: _295  and  _298
REMARK  121  A    between atoms: _298  and  _299
REMARK  122  A    between atoms: _299  and  _300
REMARK  123  A    between atoms: _300  and  _301
REMARK  124  A    between atoms: _301  and  _302
REMARK  125  A    between atoms: _306  and  _308
REMARK  126  A    between atoms: _308  and  _309
REMARK  127  A    between atoms: _308  and  _311
REMARK  128  A    between atoms: _311  and  _312
REMARK  129  A    between atoms: _315  and  _317
REMARK  130  A    between atoms: _317  and  _318
REMARK  131  A    between atoms: _317  and  _320
REMARK  132  A    between atoms: _320  and  _321
REMARK  133  A    between atoms: _321  and  _322
REMARK  134  A    between atoms: _327  and  _329
REMARK  135  A    between atoms: _329  and  _330
REMARK  136  A    between atoms: _329  and  _332
REMARK  137  A    between atoms: _332  and  _333
REMARK  138  A    between atoms: _338  and  _339
REMARK  139  A    between atoms: _341  and  _343
REMARK  140  A    between atoms: _343  and  _344
REMARK  141  A    between atoms: _343  and  _346
REMARK  142  A    between atoms: _346  and  _347
REMARK  143  A    between atoms: _350  and  _352
REMARK  144  A    between atoms: _352  and  _353
REMARK  145  A    between atoms: _352  and  _355
REMARK  146  A    between atoms: _357  and  _359
REMARK  147  A    between atoms: _359  and  _360
REMARK  148  A    between atoms: _363  and  _365
REMARK  149  A    between atoms: _365  and  _366
REMARK  150  A    between atoms: _365  and  _368
REMARK  151  A    between atoms: _368  and  _369
REMARK  152  A    between atoms: _369  and  _370
REMARK  153  A    between atoms: _370  and  _371
REMARK  154  A    between atoms: _371  and  _372
REMARK  155  A    between atoms: _376  and  _378
REMARK  156  A    between atoms: _378  and  _379
REMARK  157  A    between atoms: _378  and  _381
REMARK  158  A    between atoms: _381  and  _382
REMARK  159  A    between atoms: _385  and  _387
REMARK  160  A    between atoms: _387  and  _388
REMARK  161  A    between atoms: _391  and  _393
REMARK  162  A    between atoms: _393  and  _394
REMARK  163  A    between atoms: _393  and  _396
REMARK  164  A    between atoms: _396  and  _397
REMARK  165  A    between atoms: _397  and  _511
REMARK  166  A    between atoms: _398  and  _400
REMARK  167  A    between atoms: _400  and  _401
REMARK  168  A    between atoms: _400  and  _403
REMARK  169  A    between atoms: _403  and  _404
REMARK  170  A    between atoms: _404  and  _405
REMARK  171  A    between atoms: _405  and  _406
REMARK  172  A    between atoms: _406  and  _407
REMARK  173  A    between atoms: _411  and  _413
REMARK  174  A    between atoms: _413  and  _414
REMARK  175  A    between atoms: _416  and  _418
REMARK  176  A    between atoms: _418  and  _419
REMARK  177  A    between atoms: _418  and  _421
REMARK  178  A    between atoms: _421  and  _422
REMARK  179  A    between atoms: _425  and  _427
REMARK  180  A    between atoms: _427  and  _428
REMARK  181  A    between atoms: _427  and  _430
REMARK  182  A    between atoms: _430  and  _431
REMARK  183  A    between atoms: _433  and  _435
REMARK  184  A    between atoms: _435  and  _436
REMARK  185  A    between atoms: _438  and  _440
REMARK  186  A    between atoms: _440  and  _441
REMARK  187  A    between atoms: _443  and  _445
REMARK  188  A    between atoms: _445  and  _446
REMARK  189  A    between atoms: _445  and  _448
REMARK  190  A    between atoms: _448  and  _449
REMARK  191  A    between atoms: _452  and  _454
REMARK  192  A    between atoms: _454  and  _455
REMARK  193  A    between atoms: _454  and  _457
REMARK  194  A    between atoms: _457  and  _458
REMARK  195  A    between atoms: _461  and  _463
REMARK  196  A    between atoms: _463  and  _464
REMARK  197  A    between atoms: _463  and  _466
REMARK  198  A    between atoms: _466  and  _467
REMARK  199  A    between atoms: _469  and  _471
REMARK  200  A    between atoms: _471  and  _472
REMARK  201  A    between atoms: _471  and  _474
REMARK  202  A    between atoms: _474  and  _475
REMARK  203  A    between atoms: _485  and  _487
REMARK  204  A    between atoms: _487  and  _488
REMARK  205  A    between atoms: _490  and  _492
REMARK  206  A    between atoms: _492  and  _493
REMARK  207  A    between atoms: _492  and  _495
REMARK  208  A    between atoms: _495  and  _496
REMARK  209  A    between atoms: _496  and  _497
REMARK  210  A    between atoms: _500  and  _502
REMARK  211  A    between atoms: _502  and  _503
REMARK  212  A    between atoms: _505  and  _507
REMARK  213  A    between atoms: _507  and  _508
REMARK  214  A    between atoms: _507  and  _510
REMARK  215  A    between atoms: _510  and  _511
REMARK  216  A    between atoms: _512  and  _514
REMARK  217  A    between atoms: _514  and  _515
REMARK  218  A    between atoms: _518  and  _520
REMARK  219  A    between atoms: _520  and  _521
REMARK  220  A    between atoms: _520  and  _523
REMARK  221  A    between atoms: _523  and  _524
REMARK  222  A    between atoms: _524  and  _525
REMARK  223  A    between atoms: _530  and  _532
REMARK  224  A    between atoms: _532  and  _533
REMARK  225  A    between atoms: _532  and  _535
REMARK  226  A    between atoms: _535  and  _536
REMARK  227  A    between atoms: _536  and  _537
REMARK  228  A    between atoms: _537  and  _538
REMARK  229  A    between atoms: _548  and  _549
REMARK  230  A    between atoms: _554  and  _556
REMARK  231  A    between atoms: _556  and  _557
REMARK  232  A    between atoms: _559  and  _561
REMARK  233  A    between atoms: _561  and  _562
REMARK  234  A    between atoms: _561  and  _564
REMARK  235  A    between atoms: _567  and  _569
REMARK  236  A    between atoms: _569  and  _570
REMARK  237  A    between atoms: _569  and  _572
REMARK  238  A    between atoms: _572  and  _573
REMARK  239  A    between atoms: _578  and  _579
REMARK  240  A    between atoms: _581  and  _583
REMARK  241  A    between atoms: _583  and  _584
REMARK  242  A    between atoms: _583  and  _586
REMARK  243  A    between atoms: _586  and  _587
REMARK                            x       y       z     vdW  Elec       q    Type
REMARK                         _______ _______ _______ _____ _____    ______ ____
ROOT
ATOM      1  O   HOH     1      48.478 -29.468  32.285  0.00  0.00    +0.000 OA
ENDROOT
TORSDOF 0
REMARK  Name = ../refined-set-2016/4x6o/4x6o_pocket.pdb
REMARK  243 active torsions:
REMARK  status: ('A' for Active; 'I' for Inactive)
REMARK    1  A    between atoms: _1  and  _5
REMARK    2  A    between atoms: _5  and  _6
REMARK    3  A    between atoms: _5  and  _8
REMARK    4  A    between atoms: _8  and  _9
REMARK    5  A    between atoms: _12  and  _14
REMARK    6  A    between atoms: _14  and  _15
REMARK    7  A    between atoms: _14  and  _17
REMARK    8  A    between atoms: _20  and  _22
REMARK    9  A    between atoms: _22  and  _23
REMARK   10  A    between atoms: _22  and  _25
REMARK   11  A    between atoms: _25  and  _26
REMARK   12  A    between atoms: _29  and  _31
REMARK   13  A    between atoms: _31  and  _32
REMARK   14  A    between atoms: _31  and  _34
REMARK   15  A    between atoms: _34  and  _35
REMARK   16  A    between atoms: _38  and  _40
REMARK   17  A    between atoms: _40  and  _41
REMARK   18  A    between atoms: _40  and  _43
REMARK   19  A    between atoms: _43  and  _44
REMARK   20  A    between atoms: _49  and  _51
REMARK   21  A    between atoms: _51  and  _52
REMARK   22  A    between atoms: _51  and  _54
REMARK   23  A    between atoms: _54  and  _55
REMARK   24  A    between atoms: _58  and  _60
REMARK   25  A    between atoms: _60  and  _61
REMARK   26  A    between atoms: _60  and  _63
REMARK   27  A    between atoms: _63  and  _64
REMARK   28  A    between atoms: _67  and  _69
REMARK   29  A    between atoms: _69  and  _70
REMARK   30  A    between atoms: _69  and  _72
REMARK   31  A    between atoms: _72  and  _73
REMARK   32  A    between atoms: _73  and  _74
REMARK   33  A    between atoms: _79  and  _81
REMARK   34  A    between atoms: _81  and  _82
REMARK   35  A    between atoms: _81  and  _84
REMARK   36  A    between atoms: _84  and  _85
REMARK   37  A    between atoms: _85  and  _86
REMARK   38  A    between atoms: _86  and  _87
REMARK   39  A    between atoms: _96  and  _98
REMARK   40  A    between atoms: _98  and  _99
REMARK   41  A    between atoms: _98  and  _101
REMARK   42  A    between atoms: _101  and  _102
REMARK   43  A    between atoms: _107  and  _109
REMARK   44  A    between atoms: _109  and  _110
REMARK   45  A    between atoms: _109  and  _112
REMARK   46  A    between atoms: _112  and  _113
REMARK   47  A    between atoms: _116  and  _118
REMARK   48  A    between atoms: _118  and  _119
REMARK   49  A    between atoms: _118  and  _121
REMARK   50  A    between atoms: _121  and  _122
REMARK   51  A    between atoms: _122  and  _157
REMARK   52  A    between atoms: _123  and  _125
REMARK   53  A    between atoms: _125  and  _126
REMARK   54  A    between atoms: _128  and  _130
REMARK   55  A    between atoms: _130  and  _131
REMARK   56  A    between atoms: _134  and  _136
REMARK   57  A    between atoms: _136  and  _137
REMARK   58  A    between atoms: _140  and  _142
REMARK   59  A    between atoms: _142  and  _143
REMARK   60  A    between atoms: _142  and  _145
REMARK   61  A    between atoms: _145  and  _146
REMARK   62  A    between atoms: _151  and  _153
REMARK   63  A    between atoms: _153  and  _154
REMARK   64  A    between atoms: _153  and  _156
REMARK   65  A    between atoms: _156  and  _157
REMARK   66  A    between atoms: _158  and  _160
REMARK   67  A    between atoms: _160  and  _161
REMARK   68  A    between atoms: _160  and  _163
REMARK   69  A    between atoms: _163  and  _164
REMARK   70  A    between atoms: _170  and  _172
REMARK   71  A    between atoms: _172  and  _173
REMARK   72  A    between atoms: _172  and  _175
REMARK   73  A    between atoms: _175  and  _176
REMARK   74  A    between atoms: _181  and  _182
REMARK   75  A    between atoms: _184  and  _186
REMARK   76  A    between atoms: _186  and  _187
REMARK   77  A    between atoms: _186  and  _189
REMARK   78  A    between atoms: _192  and  _194
REMARK   79  A    between atoms: _194  and  _195
REMARK   80  A    between atoms: _194  and  _197
REMARK   81  A    between atoms: _197  and  _198
REMARK   82  A    between atoms: _198  and  _199
REMARK   83  A    between atoms: _204  and  _206
REMARK   84  A    between atoms: _206  and  _207
REMARK   85  A    between atoms: _210  and  _212
REMARK   86  A    between atoms: _212  and  _213
REMARK   87  A    between atoms: _212  and  _215
REMARK   88  A    between atoms: _215  and  _216
REMARK   89  A    between atoms: _219  and  _221
REMARK   90  A    between atoms: _221  and  _222
REMARK   91  A    between atoms: _221  and  _224
REMARK   92  A    between atoms: _227  and  _229
REMARK   93  A    between atoms: _229  and  _230
REMARK   94  A    between atoms: _229  and  _232
REMARK   95  A    between atoms: _232  and  _233
REMARK   96  A    between atoms: _243  and  _245
REMARK   97  A    between atoms: _245  and  _246
REMARK   98  A    between atoms: _248  and  _250
REMARK   99  A    between atoms: _250  and  _251
REMARK  100  A    between atoms: _250  and  _253
REMARK  101  A    between atoms: _253  and  _254
REMARK  102  A    between atoms: _259  and  _260
REMARK  103  A    between atoms: _262  and  _264
REMARK  104  A    between atoms: _264  and  _265
REMARK  105  A    between atoms: _264  and  _267
REMARK  106  A    between atoms: _267  and  _268
REMARK  107  A    between atoms: _268  and  _269
REMARK  108  A    between atoms: _269  and  _270
REMARK  109  A    between atoms: _270  and  _271
REMARK  110  A    between atoms: _275  and  _277
REMARK  111  A    between atoms: _277  and  _278
REMARK  112  A    between atoms: _277  and  _280
REMARK  113  A    between atoms: _280  and  _281
REMARK  114  A    between atoms: _284  and  _286
REMARK  115  A    between atoms: _286  and  _287
REMARK  116  A    between atoms: _286  and  _289
REMARK  117  A    between atoms: _289  and  _290
REMARK  118  A    between atoms: _293  and  _295
REMARK  119  A    between atoms: _295  and  _296
REMARK  120  A    between atoms: _295  and  _298
REMARK  121  A    between atoms: _298  and  _299
REMARK  122  A    between atoms: _299  and  _300
REMARK  123  A    between atoms: _300  and  _301
REMARK  124  A    between atoms: _301  and  _302
REMARK  125  A    between atoms: _306  and  _308
REMARK  126  A    between atoms: _308  and  _309
REMARK  127  A    between atoms: _308  and  _311
REMARK  128  A    between atoms: _311  and  _312
REMARK  129  A    between atoms: _315  and  _317
REMARK  130  A    between atoms: _317  and  _318
REMARK  131  A    between atoms: _317  and  _320
REMARK  132  A    between atoms: _320  and  _321
REMARK  133  A    between atoms: _321  and  _322
REMARK  134  A    between atoms: _327  and  _329
REMARK  135  A    between atoms: _329  and  _330
REMARK  136  A    between atoms: _329  and  _332
REMARK  137  A    between atoms: _332  and  _333
REMARK  138  A    between atoms: _338  and  _339
REMARK  139  A    between atoms: _341  and  _343
REMARK  140  A    between atoms: _343  and  _344
REMARK  141  A    between atoms: _343  and  _346
REMARK  142  A    between atoms: _346  and  _347
REMARK  143  A    between atoms: _350  and  _352
REMARK  144  A    between atoms: _352  and  _353
REMARK  145  A    between atoms: _352  and  _355
REMARK  146  A    between atoms: _357  and  _359
REMARK  147  A    between atoms: _359  and  _360
REMARK  148  A    between atoms: _363  and  _365
REMARK  149  A    between atoms: _365  and  _366
REMARK  150  A    between atoms: _365  and  _368
REMARK  151  A    between atoms: _368  and  _369
REMARK  152  A    between atoms: _369  and  _370
REMARK  153  A    between atoms: _370  and  _371
REMARK  154  A    between atoms: _371  and  _372
REMARK  155  A    between atoms: _376  and  _378
REMARK  156  A    between atoms: _378  and  _379
REMARK  157  A    between atoms: _378  and  _381
REMARK  158  A    between atoms: _381  and  _382
REMARK  159  A    between atoms: _385  and  _387
REMARK  160  A    between atoms: _387  and  _388
REMARK  161  A    between atoms: _391  and  _393
REMARK  162  A    between atoms: _393  and  _394
REMARK  163  A    between atoms: _393  and  _396
REMARK  164  A    between atoms: _396  and  _397
REMARK  165  A    between atoms: _397  and  _511
REMARK  166  A    between atoms: _398  and  _400
REMARK  167  A    between atoms: _400  and  _401
REMARK  168  A    between atoms: _400  and  _403
REMARK  169  A    between atoms: _403  and  _404
REMARK  170  A    between atoms: _404  and  _405
REMARK  171  A    between atoms: _405  and  _406
REMARK  172  A    between atoms: _406  and  _407
REMARK  173  A    between atoms: _411  and  _413
REMARK  174  A    between atoms: _413  and  _414
REMARK  175  A    between atoms: _416  and  _418
REMARK  176  A    between atoms: _418  and  _419
REMARK  177  A    between atoms: _418  and  _421
REMARK  178  A    between atoms: _421  and  _422
REMARK  179  A    between atoms: _425  and  _427
REMARK  180  A    between atoms: _427  and  _428
REMARK  181  A    between atoms: _427  and  _430
REMARK  182  A    between atoms: _430  and  _431
REMARK  183  A    between atoms: _433  and  _435
REMARK  184  A    between atoms: _435  and  _436
REMARK  185  A    between atoms: _438  and  _440
REMARK  186  A    between atoms: _440  and  _441
REMARK  187  A    between atoms: _443  and  _445
REMARK  188  A    between atoms: _445  and  _446
REMARK  189  A    between atoms: _445  and  _448
REMARK  190  A    between atoms: _448  and  _449
REMARK  191  A    between atoms: _452  and  _454
REMARK  192  A    between atoms: _454  and  _455
REMARK  193  A    between atoms: _454  and  _457
REMARK  194  A    between atoms: _457  and  _458
REMARK  195  A    between atoms: _461  and  _463
REMARK  196  A    between atoms: _463  and  _464
REMARK  197  A    between atoms: _463  and  _466
REMARK  198  A    between atoms: _466  and  _467
REMARK  199  A    between atoms: _469  and  _471
REMARK  200  A    between atoms: _471  and  _472
REMARK  201  A    between atoms: _471  and  _474
REMARK  202  A    between atoms: _474  and  _475
REMARK  203  A    between atoms: _485  and  _487
REMARK  204  A    between atoms: _487  and  _488
REMARK  205  A    between atoms: _490  and  _492
REMARK  206  A    between atoms: _492  and  _493
REMARK  207  A    between atoms: _492  and  _495
REMARK  208  A    between atoms: _495  and  _496
REMARK  209  A    between atoms: _496  and  _497
REMARK  210  A    between atoms: _500  and  _502
REMARK  211  A    between atoms: _502  and  _503
REMARK  212  A    between atoms: _505  and  _507
REMARK  213  A    between atoms: _507  and  _508
REMARK  214  A    between atoms: _507  and  _510
REMARK  215  A    between atoms: _510  and  _511
REMARK  216  A    between atoms: _512  and  _514
REMARK  217  A    between atoms: _514  and  _515
REMARK  218  A    between atoms: _518  and  _520
REMARK  219  A    between atoms: _520  and  _521
REMARK  220  A    between atoms: _520  and  _523
REMARK  221  A    between atoms: _523  and  _524
REMARK  222  A    between atoms: _524  and  _525
REMARK  223  A    between atoms: _530  and  _532
REMARK  224  A    between atoms: _532  and  _533
REMARK  225  A    between atoms: _532  and  _535
REMARK  226  A    between atoms: _535  and  _536
REMARK  227  A    between atoms: _536  and  _537
REMARK  228  A    between atoms: _537  and  _538
REMARK  229  A    between atoms: _548  and  _549
REMARK  230  A    between atoms: _554  and  _556
REMARK  231  A    between atoms: _556  and  _557
REMARK  232  A    between atoms: _559  and  _561
REMARK  233  A    between atoms: _561  and  _562
REMARK  234  A    between atoms: _561  and  _564
REMARK  235  A    between atoms: _567  and  _569
REMARK  236  A    between atoms: _569  and  _570
REMARK  237  A    between atoms: _569  and  _572
REMARK  238  A    between atoms: _572  and  _573
REMARK  239  A    between atoms: _578  and  _579
REMARK  240  A    between atoms: _581  and  _583
REMARK  241  A    between atoms: _583  and  _584
REMARK  242  A    between atoms: _583  and  _586
REMARK  243  A    between atoms: _586  and  _587
REMARK                            x       y       z     vdW  Elec       q    Type
REMARK                         _______ _______ _______ _____ _____    ______ ____
ROOT
ATOM      1  O   HOH     1      33.306  -9.499  31.043  0.00  0.00    +0.000 OA
ENDROOT
TORSDOF 0
REMARK  Name = ../refined-set-2016/4x6o/4x6o_pocket.pdb
REMARK  243 active torsions:
REMARK  status: ('A' for Active; 'I' for Inactive)
REMARK    1  A    between atoms: _1  and  _5
REMARK    2  A    between atoms: _5  and  _6
REMARK    3  A    between atoms: _5  and  _8
REMARK    4  A    between atoms: _8  and  _9
REMARK    5  A    between atoms: _12  and  _14
REMARK    6  A    between atoms: _14  and  _15
REMARK    7  A    between atoms: _14  and  _17
REMARK    8  A    between atoms: _20  and  _22
REMARK    9  A    between atoms: _22  and  _23
REMARK   10  A    between atoms: _22  and  _25
REMARK   11  A    between atoms: _25  and  _26
REMARK   12  A    between atoms: _29  and  _31
REMARK   13  A    between atoms: _31  and  _32
REMARK   14  A    between atoms: _31  and  _34
REMARK   15  A    between atoms: _34  and  _35
REMARK   16  A    between atoms: _38  and  _40
REMARK   17  A    between atoms: _40  and  _41
REMARK   18  A    between atoms: _40  and  _43
REMARK   19  A    between atoms: _43  and  _44
REMARK   20  A    between atoms: _49  and  _51
REMARK   21  A    between atoms: _51  and  _52
REMARK   22  A    between atoms: _51  and  _54
REMARK   23  A    between atoms: _54  and  _55
REMARK   24  A    between atoms: _58  and  _60
REMARK   25  A    between atoms: _60  and  _61
REMARK   26  A    between atoms: _60  and  _63
REMARK   27  A    between atoms: _63  and  _64
REMARK   28  A    between atoms: _67  and  _69
REMARK   29  A    between atoms: _69  and  _70
REMARK   30  A    between atoms: _69  and  _72
REMARK   31  A    between atoms: _72  and  _73
REMARK   32  A    between atoms: _73  and  _74
REMARK   33  A    between atoms: _79  and  _81
REMARK   34  A    between atoms: _81  and  _82
REMARK   35  A    between atoms: _81  and  _84
REMARK   36  A    between atoms: _84  and  _85
REMARK   37  A    between atoms: _85  and  _86
REMARK   38  A    between atoms: _86  and  _87
REMARK   39  A    between atoms: _96  and  _98
REMARK   40  A    between atoms: _98  and  _99
REMARK   41  A    between atoms: _98  and  _101
REMARK   42  A    between atoms: _101  and  _102
REMARK   43  A    between atoms: _107  and  _109
REMARK   44  A    between atoms: _109  and  _110
REMARK   45  A    between atoms: _109  and  _112
REMARK   46  A    between atoms: _112  and  _113
REMARK   47  A    between atoms: _116  and  _118
REMARK   48  A    between atoms: _118  and  _119
REMARK   49  A    between atoms: _118  and  _121
REMARK   50  A    between atoms: _121  and  _122
REMARK   51  A    between atoms: _122  and  _157
REMARK   52  A    between atoms: _123  and  _125
REMARK   53  A    between atoms: _125  and  _126
REMARK   54  A    between atoms: _128  and  _130
REMARK   55  A    between atoms: _130  and  _131
REMARK   56  A    between atoms: _134  and  _136
REMARK   57  A    between atoms: _136  and  _137
REMARK   58  A    between atoms: _140  and  _142
REMARK   59  A    between atoms: _142  and  _143
REMARK   60  A    between atoms: _142  and  _145
REMARK   61  A    between atoms: _145  and  _146
REMARK   62  A    between atoms: _151  and  _153
REMARK   63  A    between atoms: _153  and  _154
REMARK   64  A    between atoms: _153  and  _156
REMARK   65  A    between atoms: _156  and  _157
REMARK   66  A    between atoms: _158  and  _160
REMARK   67  A    between atoms: _160  and  _161
REMARK   68  A    between atoms: _160  and  _163
REMARK   69  A    between atoms: _163  and  _164
REMARK   70  A    between atoms: _170  and  _172
REMARK   71  A    between atoms: _172  and  _173
REMARK   72  A    between atoms: _172  and  _175
REMARK   73  A    between atoms: _175  and  _176
REMARK   74  A    between atoms: _181  and  _182
REMARK   75  A    between atoms: _184  and  _186
REMARK   76  A    between atoms: _186  and  _187
REMARK   77  A    between atoms: _186  and  _189
REMARK   78  A    between atoms: _192  and  _194
REMARK   79  A    between atoms: _194  and  _195
REMARK   80  A    between atoms: _194  and  _197
REMARK   81  A    between atoms: _197  and  _198
REMARK   82  A    between atoms: _198  and  _199
REMARK   83  A    between atoms: _204  and  _206
REMARK   84  A    between atoms: _206  and  _207
REMARK   85  A    between atoms: _210  and  _212
REMARK   86  A    between atoms: _212  and  _213
REMARK   87  A    between atoms: _212  and  _215
REMARK   88  A    between atoms: _215  and  _216
REMARK   89  A    between atoms: _219  and  _221
REMARK   90  A    between atoms: _221  and  _222
REMARK   91  A    between atoms: _221  and  _224
REMARK   92  A    between atoms: _227  and  _229
REMARK   93  A    between atoms: _229  and  _230
REMARK   94  A    between atoms: _229  and  _232
REMARK   95  A    between atoms: _232  and  _233
REMARK   96  A    between atoms: _243  and  _245
REMARK   97  A    between atoms: _245  and  _246
REMARK   98  A    between atoms: _248  and  _250
REMARK   99  A    between atoms: _250  and  _251
REMARK  100  A    between atoms: _250  and  _253
REMARK  101  A    between atoms: _253  and  _254
REMARK  102  A    between atoms: _259  and  _260
REMARK  103  A    between atoms: _262  and  _264
REMARK  104  A    between atoms: _264  and  _265
REMARK  105  A    between atoms: _264  and  _267
REMARK  106  A    between atoms: _267  and  _268
REMARK  107  A    between atoms: _268  and  _269
REMARK  108  A    between atoms: _269  and  _270
REMARK  109  A    between atoms: _270  and  _271
REMARK  110  A    between atoms: _275  and  _277
REMARK  111  A    between atoms: _277  and  _278
REMARK  112  A    between atoms: _277  and  _280
REMARK  113  A    between atoms: _280  and  _281
REMARK  114  A    between atoms: _284  and  _286
REMARK  115  A    between atoms: _286  and  _287
REMARK  116  A    between atoms: _286  and  _289
REMARK  117  A    between atoms: _289  and  _290
REMARK  118  A    between atoms: _293  and  _295
REMARK  119  A    between atoms: _295  and  _296
REMARK  120  A    between atoms: _295  and  _298
REMARK  121  A    between atoms: _298  and  _299
REMARK  122  A    between atoms: _299  and  _300
REMARK  123  A    between atoms: _300  and  _301
REMARK  124  A    between atoms: _301  and  _302
REMARK  125  A    between atoms: _306  and  _308
REMARK  126  A    between atoms: _308  and  _309
REMARK  127  A    between atoms: _308  and  _311
REMARK  128  A    between atoms: _311  and  _312
REMARK  129  A    between atoms: _315  and  _317
REMARK  130  A    between atoms: _317  and  _318
REMARK  131  A    between atoms: _317  and  _320
REMARK  132  A    between atoms: _320  and  _321
REMARK  133  A    between atoms: _321  and  _322
REMARK  134  A    between atoms: _327  and  _329
REMARK  135  A    between atoms: _329  and  _330
REMARK  136  A    between atoms: _329  and  _332
REMARK  137  A    between atoms: _332  and  _333
REMARK  138  A    between atoms: _338  and  _339
REMARK  139  A    between atoms: _341  and  _343
REMARK  140  A    between atoms: _343  and  _344
REMARK  141  A    between atoms: _343  and  _346
REMARK  142  A    between atoms: _346  and  _347
REMARK  143  A    between atoms: _350  and  _352
REMARK  144  A    between atoms: _352  and  _353
REMARK  145  A    between atoms: _352  and  _355
REMARK  146  A    between atoms: _357  and  _359
REMARK  147  A    between atoms: _359  and  _360
REMARK  148  A    between atoms: _363  and  _365
REMARK  149  A    between atoms: _365  and  _366
REMARK  150  A    between atoms: _365  and  _368
REMARK  151  A    between atoms: _368  and  _369
REMARK  152  A    between atoms: _369  and  _370
REMARK  153  A    between atoms: _370  and  _371
REMARK  154  A    between atoms: _371  and  _372
REMARK  155  A    between atoms: _376  and  _378
REMARK  156  A    between atoms: _378  and  _379
REMARK  157  A    between atoms: _378  and  _381
REMARK  158  A    between atoms: _381  and  _382
REMARK  159  A    between atoms: _385  and  _387
REMARK  160  A    between atoms: _387  and  _388
REMARK  161  A    between atoms: _391  and  _393
REMARK  162  A    between atoms: _393  and  _394
REMARK  163  A    between atoms: _393  and  _396
REMARK  164  A    between atoms: _396  and  _397
REMARK  165  A    between atoms: _397  and  _511
REMARK  166  A    between atoms: _398  and  _400
REMARK  167  A    between atoms: _400  and  _401
REMARK  168  A    between atoms: _400  and  _403
REMARK  169  A    between atoms: _403  and  _404
REMARK  170  A    between atoms: _404  and  _405
REMARK  171  A    between atoms: _405  and  _406
REMARK  172  A    between atoms: _406  and  _407
REMARK  173  A    between atoms: _411  and  _413
REMARK  174  A    between atoms: _413  and  _414
REMARK  175  A    between atoms: _416  and  _418
REMARK  176  A    between atoms: _418  and  _419
REMARK  177  A    between atoms: _418  and  _421
REMARK  178  A    between atoms: _421  and  _422
REMARK  179  A    between atoms: _425  and  _427
REMARK  180  A    between atoms: _427  and  _428
REMARK  181  A    between atoms: _427  and  _430
REMARK  182  A    between atoms: _430  and  _431
REMARK  183  A    between atoms: _433  and  _435
REMARK  184  A    between atoms: _435  and  _436
REMARK  185  A    between atoms: _438  and  _440
REMARK  186  A    between atoms: _440  and  _441
REMARK  187  A    between atoms: _443  and  _445
REMARK  188  A    between atoms: _445  and  _446
REMARK  189  A    between atoms: _445  and  _448
REMARK  190  A    between atoms: _448  and  _449
REMARK  191  A    between atoms: _452  and  _454
REMARK  192  A    between atoms: _454  and  _455
REMARK  193  A    between atoms: _454  and  _457
REMARK  194  A    between atoms: _457  and  _458
REMARK  195  A    between atoms: _461  and  _463
REMARK  196  A    between atoms: _463  and  _464
REMARK  197  A    between atoms: _463  and  _466
REMARK  198  A    between atoms: _466  and  _467
REMARK  199  A    between atoms: _469  and  _471
REMARK  200  A    between atoms: _471  and  _472
REMARK  201  A    between atoms: _471  and  _474
REMARK  202  A    between atoms: _474  and  _475
REMARK  203  A    between atoms: _485  and  _487
REMARK  204  A    between atoms: _487  and  _488
REMARK  205  A    between atoms: _490  and  _492
REMARK  206  A    between atoms: _492  and  _493
REMARK  207  A    between atoms: _492  and  _495
REMARK  208  A    between atoms: _495  and  _496
REMARK  209  A    between atoms: _496  and  _497
REMARK  210  A    between atoms: _500  and  _502
REMARK  211  A    between atoms: _502  and  _503
REMARK  212  A    between atoms: _505  and  _507
REMARK  213  A    between atoms: _507  and  _508
REMARK  214  A    between atoms: _507  and  _510
REMARK  215  A    between atoms: _510  and  _511
REMARK  216  A    between atoms: _512  and  _514
REMARK  217  A    between atoms: _514  and  _515
REMARK  218  A    between atoms: _518  and  _520
REMARK  219  A    between atoms: _520  and  _521
REMARK  220  A    between atoms: _520  and  _523
REMARK  221  A    between atoms: _523  and  _524
REMARK  222  A    between atoms: _524  and  _525
REMARK  223  A    between atoms: _530  and  _532
REMARK  224  A    between atoms: _532  and  _533
REMARK  225  A    between atoms: _532  and  _535
REMARK  226  A    between atoms: _535  and  _536
REMARK  227  A    between atoms: _536  and  _537
REMARK  228  A    between atoms: _537  and  _538
REMARK  229  A    between atoms: _548  and  _549
REMARK  230  A    between atoms: _554  and  _556
REMARK  231  A    between atoms: _556  and  _557
REMARK  232  A    between atoms: _559  and  _561
REMARK  233  A    between atoms: _561  and  _562
REMARK  234  A    between atoms: _561  and  _564
REMARK  235  A    between atoms: _567  and  _569
REMARK  236  A    between atoms: _569  and  _570
REMARK  237  A    between atoms: _569  and  _572
REMARK  238  A    between atoms: _572  and  _573
REMARK  239  A    between atoms: _578  and  _579
REMARK  240  A    between atoms: _581  and  _583
REMARK  241  A    between atoms: _583  and  _584
REMARK  242  A    between atoms: _583  and  _586
REMARK  243  A    between atoms: _586  and  _587
REMARK                            x       y       z     vdW  Elec       q    Type
REMARK                         _______ _______ _______ _____ _____    ______ ____
ROOT
ATOM      1  O   HOH     1      37.088 -21.994  24.898  0.00  0.00    +0.000 OA
ENDROOT
TORSDOF 0
REMARK  Name = ../refined-set-2016/4x6o/4x6o_pocket.pdb
REMARK  243 active torsions:
REMARK  status: ('A' for Active; 'I' for Inactive)
REMARK    1  A    between atoms: _1  and  _5
REMARK    2  A    between atoms: _5  and  _6
REMARK    3  A    between atoms: _5  and  _8
REMARK    4  A    between atoms: _8  and  _9
REMARK    5  A    between atoms: _12  and  _14
REMARK    6  A    between atoms: _14  and  _15
REMARK    7  A    between atoms: _14  and  _17
REMARK    8  A    between atoms: _20  and  _22
REMARK    9  A    between atoms: _22  and  _23
REMARK   10  A    between atoms: _22  and  _25
REMARK   11  A    between atoms: _25  and  _26
REMARK   12  A    between atoms: _29  and  _31
REMARK   13  A    between atoms: _31  and  _32
REMARK   14  A    between atoms: _31  and  _34
REMARK   15  A    between atoms: _34  and  _35
REMARK   16  A    between atoms: _38  and  _40
REMARK   17  A    between atoms: _40  and  _41
REMARK   18  A    between atoms: _40  and  _43
REMARK   19  A    between atoms: _43  and  _44
REMARK   20  A    between atoms: _49  and  _51
REMARK   21  A    between atoms: _51  and  _52
REMARK   22  A    between atoms: _51  and  _54
REMARK   23  A    between atoms: _54  and  _55
REMARK   24  A    between atoms: _58  and  _60
REMARK   25  A    between atoms: _60  and  _61
REMARK   26  A    between atoms: _60  and  _63
REMARK   27  A    between atoms: _63  and  _64
REMARK   28  A    between atoms: _67  and  _69
REMARK   29  A    between atoms: _69  and  _70
REMARK   30  A    between atoms: _69  and  _72
REMARK   31  A    between atoms: _72  and  _73
REMARK   32  A    between atoms: _73  and  _74
REMARK   33  A    between atoms: _79  and  _81
REMARK   34  A    between atoms: _81  and  _82
REMARK   35  A    between atoms: _81  and  _84
REMARK   36  A    between atoms: _84  and  _85
REMARK   37  A    between atoms: _85  and  _86
REMARK   38  A    between atoms: _86  and  _87
REMARK   39  A    between atoms: _96  and  _98
REMARK   40  A    between atoms: _98  and  _99
REMARK   41  A    between atoms: _98  and  _101
REMARK   42  A    between atoms: _101  and  _102
REMARK   43  A    between atoms: _107  and  _109
REMARK   44  A    between atoms: _109  and  _110
REMARK   45  A    between atoms: _109  and  _112
REMARK   46  A    between atoms: _112  and  _113
REMARK   47  A    between atoms: _116  and  _118
REMARK   48  A    between atoms: _118  and  _119
REMARK   49  A    between atoms: _118  and  _121
REMARK   50  A    between atoms: _121  and  _122
REMARK   51  A    between atoms: _122  and  _157
REMARK   52  A    between atoms: _123  and  _125
REMARK   53  A    between atoms: _125  and  _126
REMARK   54  A    between atoms: _128  and  _130
REMARK   55  A    between atoms: _130  and  _131
REMARK   56  A    between atoms: _134  and  _136
REMARK   57  A    between atoms: _136  and  _137
REMARK   58  A    between atoms: _140  and  _142
REMARK   59  A    between atoms: _142  and  _143
REMARK   60  A    between atoms: _142  and  _145
REMARK   61  A    between atoms: _145  and  _146
REMARK   62  A    between atoms: _151  and  _153
REMARK   63  A    between atoms: _153  and  _154
REMARK   64  A    between atoms: _153  and  _156
REMARK   65  A    between atoms: _156  and  _157
REMARK   66  A    between atoms: _158  and  _160
REMARK   67  A    between atoms: _160  and  _161
REMARK   68  A    between atoms: _160  and  _163
REMARK   69  A    between atoms: _163  and  _164
REMARK   70  A    between atoms: _170  and  _172
REMARK   71  A    between atoms: _172  and  _173
REMARK   72  A    between atoms: _172  and  _175
REMARK   73  A    between atoms: _175  and  _176
REMARK   74  A    between atoms: _181  and  _182
REMARK   75  A    between atoms: _184  and  _186
REMARK   76  A    between atoms: _186  and  _187
REMARK   77  A    between atoms: _186  and  _189
REMARK   78  A    between atoms: _192  and  _194
REMARK   79  A    between atoms: _194  and  _195
REMARK   80  A    between atoms: _194  and  _197
REMARK   81  A    between atoms: _197  and  _198
REMARK   82  A    between atoms: _198  and  _199
REMARK   83  A    between atoms: _204  and  _206
REMARK   84  A    between atoms: _206  and  _207
REMARK   85  A    between atoms: _210  and  _212
REMARK   86  A    between atoms: _212  and  _213
REMARK   87  A    between atoms: _212  and  _215
REMARK   88  A    between atoms: _215  and  _216
REMARK   89  A    between atoms: _219  and  _221
REMARK   90  A    between atoms: _221  and  _222
REMARK   91  A    between atoms: _221  and  _224
REMARK   92  A    between atoms: _227  and  _229
REMARK   93  A    between atoms: _229  and  _230
REMARK   94  A    between atoms: _229  and  _232
REMARK   95  A    between atoms: _232  and  _233
REMARK   96  A    between atoms: _243  and  _245
REMARK   97  A    between atoms: _245  and  _246
REMARK   98  A    between atoms: _248  and  _250
REMARK   99  A    between atoms: _250  and  _251
REMARK  100  A    between atoms: _250  and  _253
REMARK  101  A    between atoms: _253  and  _254
REMARK  102  A    between atoms: _259  and  _260
REMARK  103  A    between atoms: _262  and  _264
REMARK  104  A    between atoms: _264  and  _265
REMARK  105  A    between atoms: _264  and  _267
REMARK  106  A    between atoms: _267  and  _268
REMARK  107  A    between atoms: _268  and  _269
REMARK  108  A    between atoms: _269  and  _270
REMARK  109  A    between atoms: _270  and  _271
REMARK  110  A    between atoms: _275  and  _277
REMARK  111  A    between atoms: _277  and  _278
REMARK  112  A    between atoms: _277  and  _280
REMARK  113  A    between atoms: _280  and  _281
REMARK  114  A    between atoms: _284  and  _286
REMARK  115  A    between atoms: _286  and  _287
REMARK  116  A    between atoms: _286  and  _289
REMARK  117  A    between atoms: _289  and  _290
REMARK  118  A    between atoms: _293  and  _295
REMARK  119  A    between atoms: _295  and  _296
REMARK  120  A    between atoms: _295  and  _298
REMARK  121  A    between atoms: _298  and  _299
REMARK  122  A    between atoms: _299  and  _300
REMARK  123  A    between atoms: _300  and  _301
REMARK  124  A    between atoms: _301  and  _302
REMARK  125  A    between atoms: _306  and  _308
REMARK  126  A    between atoms: _308  and  _309
REMARK  127  A    between atoms: _308  and  _311
REMARK  128  A    between atoms: _311  and  _312
REMARK  129  A    between atoms: _315  and  _317
REMARK  130  A    between atoms: _317  and  _318
REMARK  131  A    between atoms: _317  and  _320
REMARK  132  A    between atoms: _320  and  _321
REMARK  133  A    between atoms: _321  and  _322
REMARK  134  A    between atoms: _327  and  _329
REMARK  135  A    between atoms: _329  and  _330
REMARK  136  A    between atoms: _329  and  _332
REMARK  137  A    between atoms: _332  and  _333
REMARK  138  A    between atoms: _338  and  _339
REMARK  139  A    between atoms: _341  and  _343
REMARK  140  A    between atoms: _343  and  _344
REMARK  141  A    between atoms: _343  and  _346
REMARK  142  A    between atoms: _346  and  _347
REMARK  143  A    between atoms: _350  and  _352
REMARK  144  A    between atoms: _352  and  _353
REMARK  145  A    between atoms: _352  and  _355
REMARK  146  A    between atoms: _357  and  _359
REMARK  147  A    between atoms: _359  and  _360
REMARK  148  A    between atoms: _363  and  _365
REMARK  149  A    between atoms: _365  and  _366
REMARK  150  A    between atoms: _365  and  _368
REMARK  151  A    between atoms: _368  and  _369
REMARK  152  A    between atoms: _369  and  _370
REMARK  153  A    between atoms: _370  and  _371
REMARK  154  A    between atoms: _371  and  _372
REMARK  155  A    between atoms: _376  and  _378
REMARK  156  A    between atoms: _378  and  _379
REMARK  157  A    between atoms: _378  and  _381
REMARK  158  A    between atoms: _381  and  _382
REMARK  159  A    between atoms: _385  and  _387
REMARK  160  A    between atoms: _387  and  _388
REMARK  161  A    between atoms: _391  and  _393
REMARK  162  A    between atoms: _393  and  _394
REMARK  163  A    between atoms: _393  and  _396
REMARK  164  A    between atoms: _396  and  _397
REMARK  165  A    between atoms: _397  and  _511
REMARK  166  A    between atoms: _398  and  _400
REMARK  167  A    between atoms: _400  and  _401
REMARK  168  A    between atoms: _400  and  _403
REMARK  169  A    between atoms: _403  and  _404
REMARK  170  A    between atoms: _404  and  _405
REMARK  171  A    between atoms: _405  and  _406
REMARK  172  A    between atoms: _406  and  _407
REMARK  173  A    between atoms: _411  and  _413
REMARK  174  A    between atoms: _413  and  _414
REMARK  175  A    between atoms: _416  and  _418
REMARK  176  A    between atoms: _418  and  _419
REMARK  177  A    between atoms: _418  and  _421
REMARK  178  A    between atoms: _421  and  _422
REMARK  179  A    between atoms: _425  and  _427
REMARK  180  A    between atoms: _427  and  _428
REMARK  181  A    between atoms: _427  and  _430
REMARK  182  A    between atoms: _430  and  _431
REMARK  183  A    between atoms: _433  and  _435
REMARK  184  A    between atoms: _435  and  _436
REMARK  185  A    between atoms: _438  and  _440
REMARK  186  A    between atoms: _440  and  _441
REMARK  187  A    between atoms: _443  and  _445
REMARK  188  A    between atoms: _445  and  _446
REMARK  189  A    between atoms: _445  and  _448
REMARK  190  A    between atoms: _448  and  _449
REMARK  191  A    between atoms: _452  and  _454
REMARK  192  A    between atoms: _454  and  _455
REMARK  193  A    between atoms: _454  and  _457
REMARK  194  A    between atoms: _457  and  _458
REMARK  195  A    between atoms: _461  and  _463
REMARK  196  A    between atoms: _463  and  _464
REMARK  197  A    between atoms: _463  and  _466
REMARK  198  A    between atoms: _466  and  _467
REMARK  199  A    between atoms: _469  and  _471
REMARK  200  A    between atoms: _471  and  _472
REMARK  201  A    between atoms: _471  and  _474
REMARK  202  A    between atoms: _474  and  _475
REMARK  203  A    between atoms: _485  and  _487
REMARK  204  A    between atoms: _487  and  _488
REMARK  205  A    between atoms: _490  and  _492
REMARK  206  A    between atoms: _492  and  _493
REMARK  207  A    between atoms: _492  and  _495
REMARK  208  A    between atoms: _495  and  _496
REMARK  209  A    between atoms: _496  and  _497
REMARK  210  A    between atoms: _500  and  _502
REMARK  211  A    between atoms: _502  and  _503
REMARK  212  A    between atoms: _505  and  _507
REMARK  213  A    between atoms: _507  and  _508
REMARK  214  A    between atoms: _507  and  _510
REMARK  215  A    between atoms: _510  and  _511
REMARK  216  A    between atoms: _512  and  _514
REMARK  217  A    between atoms: _514  and  _515
REMARK  218  A    between atoms: _518  and  _520
REMARK  219  A    between atoms: _520  and  _521
REMARK  220  A    between atoms: _520  and  _523
REMARK  221  A    between atoms: _523  and  _524
REMARK  222  A    between atoms: _524  and  _525
REMARK  223  A    between atoms: _530  and  _532
REMARK  224  A    between atoms: _532  and  _533
REMARK  225  A    between atoms: _532  and  _535
REMARK  226  A    between atoms: _535  and  _536
REMARK  227  A    between atoms: _536  and  _537
REMARK  228  A    between atoms: _537  and  _538
REMARK  229  A    between atoms: _548  and  _549
REMARK  230  A    between atoms: _554  and  _556
REMARK  231  A    between atoms: _556  and  _557
REMARK  232  A    between atoms: _559  and  _561
REMARK  233  A    between atoms: _561  and  _562
REMARK  234  A    between atoms: _561  and  _564
REMARK  235  A    between atoms: _567  and  _569
REMARK  236  A    between atoms: _569  and  _570
REMARK  237  A    between atoms: _569  and  _572
REMARK  238  A    between atoms: _572  and  _573
REMARK  239  A    between atoms: _578  and  _579
REMARK  240  A    between atoms: _581  and  _583
REMARK  241  A    between atoms: _583  and  _584
REMARK  242  A    between atoms: _583  and  _586
REMARK  243  A    between atoms: _586  and  _587
REMARK                            x       y       z     vdW  Elec       q    Type
REMARK                         _______ _______ _______ _____ _____    ______ ____
ROOT
ATOM      1  O   HOH     1      46.907 -19.464  24.465  0.00  0.00    +0.000 OA
ENDROOT
TORSDOF 0
REMARK  Name = ../refined-set-2016/4x6o/4x6o_pocket.pdb
REMARK  243 active torsions:
REMARK  status: ('A' for Active; 'I' for Inactive)
REMARK    1  A    between atoms: _1  and  _5
REMARK    2  A    between atoms: _5  and  _6
REMARK    3  A    between atoms: _5  and  _8
REMARK    4  A    between atoms: _8  and  _9
REMARK    5  A    between atoms: _12  and  _14
REMARK    6  A    between atoms: _14  and  _15
REMARK    7  A    between atoms: _14  and  _17
REMARK    8  A    between atoms: _20  and  _22
REMARK    9  A    between atoms: _22  and  _23
REMARK   10  A    between atoms: _22  and  _25
REMARK   11  A    between atoms: _25  and  _26
REMARK   12  A    between atoms: _29  and  _31
REMARK   13  A    between atoms: _31  and  _32
REMARK   14  A    between atoms: _31  and  _34
REMARK   15  A    between atoms: _34  and  _35
REMARK   16  A    between atoms: _38  and  _40
REMARK   17  A    between atoms: _40  and  _41
REMARK   18  A    between atoms: _40  and  _43
REMARK   19  A    between atoms: _43  and  _44
REMARK   20  A    between atoms: _49  and  _51
REMARK   21  A    between atoms: _51  and  _52
REMARK   22  A    between atoms: _51  and  _54
REMARK   23  A    between atoms: _54  and  _55
REMARK   24  A    between atoms: _58  and  _60
REMARK   25  A    between atoms: _60  and  _61
REMARK   26  A    between atoms: _60  and  _63
REMARK   27  A    between atoms: _63  and  _64
REMARK   28  A    between atoms: _67  and  _69
REMARK   29  A    between atoms: _69  and  _70
REMARK   30  A    between atoms: _69  and  _72
REMARK   31  A    between atoms: _72  and  _73
REMARK   32  A    between atoms: _73  and  _74
REMARK   33  A    between atoms: _79  and  _81
REMARK   34  A    between atoms: _81  and  _82
REMARK   35  A    between atoms: _81  and  _84
REMARK   36  A    between atoms: _84  and  _85
REMARK   37  A    between atoms: _85  and  _86
REMARK   38  A    between atoms: _86  and  _87
REMARK   39  A    between atoms: _96  and  _98
REMARK   40  A    between atoms: _98  and  _99
REMARK   41  A    between atoms: _98  and  _101
REMARK   42  A    between atoms: _101  and  _102
REMARK   43  A    between atoms: _107  and  _109
REMARK   44  A    between atoms: _109  and  _110
REMARK   45  A    between atoms: _109  and  _112
REMARK   46  A    between atoms: _112  and  _113
REMARK   47  A    between atoms: _116  and  _118
REMARK   48  A    between atoms: _118  and  _119
REMARK   49  A    between atoms: _118  and  _121
REMARK   50  A    between atoms: _121  and  _122
REMARK   51  A    between atoms: _122  and  _157
REMARK   52  A    between atoms: _123  and  _125
REMARK   53  A    between atoms: _125  and  _126
REMARK   54  A    between atoms: _128  and  _130
REMARK   55  A    between atoms: _130  and  _131
REMARK   56  A    between atoms: _134  and  _136
REMARK   57  A    between atoms: _136  and  _137
REMARK   58  A    between atoms: _140  and  _142
REMARK   59  A    between atoms: _142  and  _143
REMARK   60  A    between atoms: _142  and  _145
REMARK   61  A    between atoms: _145  and  _146
REMARK   62  A    between atoms: _151  and  _153
REMARK   63  A    between atoms: _153  and  _154
REMARK   64  A    between atoms: _153  and  _156
REMARK   65  A    between atoms: _156  and  _157
REMARK   66  A    between atoms: _158  and  _160
REMARK   67  A    between atoms: _160  and  _161
REMARK   68  A    between atoms: _160  and  _163
REMARK   69  A    between atoms: _163  and  _164
REMARK   70  A    between atoms: _170  and  _172
REMARK   71  A    between atoms: _172  and  _173
REMARK   72  A    between atoms: _172  and  _175
REMARK   73  A    between atoms: _175  and  _176
REMARK   74  A    between atoms: _181  and  _182
REMARK   75  A    between atoms: _184  and  _186
REMARK   76  A    between atoms: _186  and  _187
REMARK   77  A    between atoms: _186  and  _189
REMARK   78  A    between atoms: _192  and  _194
REMARK   79  A    between atoms: _194  and  _195
REMARK   80  A    between atoms: _194  and  _197
REMARK   81  A    between atoms: _197  and  _198
REMARK   82  A    between atoms: _198  and  _199
REMARK   83  A    between atoms: _204  and  _206
REMARK   84  A    between atoms: _206  and  _207
REMARK   85  A    between atoms: _210  and  _212
REMARK   86  A    between atoms: _212  and  _213
REMARK   87  A    between atoms: _212  and  _215
REMARK   88  A    between atoms: _215  and  _216
REMARK   89  A    between atoms: _219  and  _221
REMARK   90  A    between atoms: _221  and  _222
REMARK   91  A    between atoms: _221  and  _224
REMARK   92  A    between atoms: _227  and  _229
REMARK   93  A    between atoms: _229  and  _230
REMARK   94  A    between atoms: _229  and  _232
REMARK   95  A    between atoms: _232  and  _233
REMARK   96  A    between atoms: _243  and  _245
REMARK   97  A    between atoms: _245  and  _246
REMARK   98  A    between atoms: _248  and  _250
REMARK   99  A    between atoms: _250  and  _251
REMARK  100  A    between atoms: _250  and  _253
REMARK  101  A    between atoms: _253  and  _254
REMARK  102  A    between atoms: _259  and  _260
REMARK  103  A    between atoms: _262  and  _264
REMARK  104  A    between atoms: _264  and  _265
REMARK  105  A    between atoms: _264  and  _267
REMARK  106  A    between atoms: _267  and  _268
REMARK  107  A    between atoms: _268  and  _269
REMARK  108  A    between atoms: _269  and  _270
REMARK  109  A    between atoms: _270  and  _271
REMARK  110  A    between atoms: _275  and  _277
REMARK  111  A    between atoms: _277  and  _278
REMARK  112  A    between atoms: _277  and  _280
REMARK  113  A    between atoms: _280  and  _281
REMARK  114  A    between atoms: _284  and  _286
REMARK  115  A    between atoms: _286  and  _287
REMARK  116  A    between atoms: _286  and  _289
REMARK  117  A    between atoms: _289  and  _290
REMARK  118  A    between atoms: _293  and  _295
REMARK  119  A    between atoms: _295  and  _296
REMARK  120  A    between atoms: _295  and  _298
REMARK  121  A    between atoms: _298  and  _299
REMARK  122  A    between atoms: _299  and  _300
REMARK  123  A    between atoms: _300  and  _301
REMARK  124  A    between atoms: _301  and  _302
REMARK  125  A    between atoms: _306  and  _308
REMARK  126  A    between atoms: _308  and  _309
REMARK  127  A    between atoms: _308  and  _311
REMARK  128  A    between atoms: _311  and  _312
REMARK  129  A    between atoms: _315  and  _317
REMARK  130  A    between atoms: _317  and  _318
REMARK  131  A    between atoms: _317  and  _320
REMARK  132  A    between atoms: _320  and  _321
REMARK  133  A    between atoms: _321  and  _322
REMARK  134  A    between atoms: _327  and  _329
REMARK  135  A    between atoms: _329  and  _330
REMARK  136  A    between atoms: _329  and  _332
REMARK  137  A    between atoms: _332  and  _333
REMARK  138  A    between atoms: _338  and  _339
REMARK  139  A    between atoms: _341  and  _343
REMARK  140  A    between atoms: _343  and  _344
REMARK  141  A    between atoms: _343  and  _346
REMARK  142  A    between atoms: _346  and  _347
REMARK  143  A    between atoms: _350  and  _352
REMARK  144  A    between atoms: _352  and  _353
REMARK  145  A    between atoms: _352  and  _355
REMARK  146  A    between atoms: _357  and  _359
REMARK  147  A    between atoms: _359  and  _360
REMARK  148  A    between atoms: _363  and  _365
REMARK  149  A    between atoms: _365  and  _366
REMARK  150  A    between atoms: _365  and  _368
REMARK  151  A    between atoms: _368  and  _369
REMARK  152  A    between atoms: _369  and  _370
REMARK  153  A    between atoms: _370  and  _371
REMARK  154  A    between atoms: _371  and  _372
REMARK  155  A    between atoms: _376  and  _378
REMARK  156  A    between atoms: _378  and  _379
REMARK  157  A    between atoms: _378  and  _381
REMARK  158  A    between atoms: _381  and  _382
REMARK  159  A    between atoms: _385  and  _387
REMARK  160  A    between atoms: _387  and  _388
REMARK  161  A    between atoms: _391  and  _393
REMARK  162  A    between atoms: _393  and  _394
REMARK  163  A    between atoms: _393  and  _396
REMARK  164  A    between atoms: _396  and  _397
REMARK  165  A    between atoms: _397  and  _511
REMARK  166  A    between atoms: _398  and  _400
REMARK  167  A    between atoms: _400  and  _401
REMARK  168  A    between atoms: _400  and  _403
REMARK  169  A    between atoms: _403  and  _404
REMARK  170  A    between atoms: _404  and  _405
REMARK  171  A    between atoms: _405  and  _406
REMARK  172  A    between atoms: _406  and  _407
REMARK  173  A    between atoms: _411  and  _413
REMARK  174  A    between atoms: _413  and  _414
REMARK  175  A    between atoms: _416  and  _418
REMARK  176  A    between atoms: _418  and  _419
REMARK  177  A    between atoms: _418  and  _421
REMARK  178  A    between atoms: _421  and  _422
REMARK  179  A    between atoms: _425  and  _427
REMARK  180  A    between atoms: _427  and  _428
REMARK  181  A    between atoms: _427  and  _430
REMARK  182  A    between atoms: _430  and  _431
REMARK  183  A    between atoms: _433  and  _435
REMARK  184  A    between atoms: _435  and  _436
REMARK  185  A    between atoms: _438  and  _440
REMARK  186  A    between atoms: _440  and  _441
REMARK  187  A    between atoms: _443  and  _445
REMARK  188  A    between atoms: _445  and  _446
REMARK  189  A    between atoms: _445  and  _448
REMARK  190  A    between atoms: _448  and  _449
REMARK  191  A    between atoms: _452  and  _454
REMARK  192  A    between atoms: _454  and  _455
REMARK  193  A    between atoms: _454  and  _457
REMARK  194  A    between atoms: _457  and  _458
REMARK  195  A    between atoms: _461  and  _463
REMARK  196  A    between atoms: _463  and  _464
REMARK  197  A    between atoms: _463  and  _466
REMARK  198  A    between atoms: _466  and  _467
REMARK  199  A    between atoms: _469  and  _471
REMARK  200  A    between atoms: _471  and  _472
REMARK  201  A    between atoms: _471  and  _474
REMARK  202  A    between atoms: _474  and  _475
REMARK  203  A    between atoms: _485  and  _487
REMARK  204  A    between atoms: _487  and  _488
REMARK  205  A    between atoms: _490  and  _492
REMARK  206  A    between atoms: _492  and  _493
REMARK  207  A    between atoms: _492  and  _495
REMARK  208  A    between atoms: _495  and  _496
REMARK  209  A    between atoms: _496  and  _497
REMARK  210  A    between atoms: _500  and  _502
REMARK  211  A    between atoms: _502  and  _503
REMARK  212  A    between atoms: _505  and  _507
REMARK  213  A    between atoms: _507  and  _508
REMARK  214  A    between atoms: _507  and  _510
REMARK  215  A    between atoms: _510  and  _511
REMARK  216  A    between atoms: _512  and  _514
REMARK  217  A    between atoms: _514  and  _515
REMARK  218  A    between atoms: _518  and  _520
REMARK  219  A    between atoms: _520  and  _521
REMARK  220  A    between atoms: _520  and  _523
REMARK  221  A    between atoms: _523  and  _524
REMARK  222  A    between atoms: _524  and  _525
REMARK  223  A    between atoms: _530  and  _532
REMARK  224  A    between atoms: _532  and  _533
REMARK  225  A    between atoms: _532  and  _535
REMARK  226  A    between atoms: _535  and  _536
REMARK  227  A    between atoms: _536  and  _537
REMARK  228  A    between atoms: _537  and  _538
REMARK  229  A    between atoms: _548  and  _549
REMARK  230  A    between atoms: _554  and  _556
REMARK  231  A    between atoms: _556  and  _557
REMARK  232  A    between atoms: _559  and  _561
REMARK  233  A    between atoms: _561  and  _562
REMARK  234  A    between atoms: _561  and  _564
REMARK  235  A    between atoms: _567  and  _569
REMARK  236  A    between atoms: _569  and  _570
REMARK  237  A    between atoms: _569  and  _572
REMARK  238  A    between atoms: _572  and  _573
REMARK  239  A    between atoms: _578  and  _579
REMARK  240  A    between atoms: _581  and  _583
REMARK  241  A    between atoms: _583  and  _584
REMARK  242  A    between atoms: _583  and  _586
REMARK  243  A    between atoms: _586  and  _587
REMARK                            x       y       z     vdW  Elec       q    Type
REMARK                         _______ _______ _______ _____ _____    ______ ____
ROOT
ATOM      1  O   HOH     1      51.203 -18.940  29.880  0.00  0.00    +0.000 OA
ENDROOT
TORSDOF 0
