REMARK  Name = ../refined-set-2016/4q7v/4q7v_pocket.pdb
REMARK  133 active torsions:
REMARK  status: ('A' for Active; 'I' for Inactive)
REMARK    1  A    between atoms: _1  and  _3
REMARK    2  A    between atoms: _3  and  _4
REMARK    3  A    between atoms: _3  and  _6
REMARK    4  A    between atoms: _6  and  _7
REMARK    5  A    between atoms: _17  and  _19
REMARK    6  A    between atoms: _19  and  _20
REMARK    7  A    between atoms: _19  and  _22
REMARK    8  A    between atoms: _22  and  _23
REMARK    9  A    between atoms: _28  and  _29
REMARK   10  A    between atoms: _31  and  _33
REMARK   11  A    between atoms: _33  and  _34
REMARK   12  A    between atoms: _33  and  _36
REMARK   13  A    between atoms: _36  and  _37
REMARK   14  A    between atoms: _39  and  _41
REMARK   15  A    between atoms: _41  and  _42
REMARK   16  A    between atoms: _41  and  _44
REMARK   17  A    between atoms: _44  and  _45
REMARK   18  A    between atoms: _50  and  _52
REMARK   19  A    between atoms: _52  and  _53
REMARK   20  A    between atoms: _52  and  _55
REMARK   21  A    between atoms: _55  and  _56
REMARK   22  A    between atoms: _61  and  _63
REMARK   23  A    between atoms: _63  and  _64
REMARK   24  A    between atoms: _67  and  _69
REMARK   25  A    between atoms: _69  and  _70
REMARK   26  A    between atoms: _69  and  _72
REMARK   27  A    between atoms: _72  and  _73
REMARK   28  A    between atoms: _78  and  _80
REMARK   29  A    between atoms: _80  and  _81
REMARK   30  A    between atoms: _80  and  _83
REMARK   31  A    between atoms: _83  and  _84
REMARK   32  A    between atoms: _87  and  _89
REMARK   33  A    between atoms: _89  and  _90
REMARK   34  A    between atoms: _89  and  _92
REMARK   35  A    between atoms: _92  and  _93
REMARK   36  A    between atoms: _93  and  _94
REMARK   37  A    between atoms: _99  and  _101
REMARK   38  A    between atoms: _112  and  _115
REMARK   39  A    between atoms: _115  and  _116
REMARK   40  A    between atoms: _124  and  _125
REMARK   41  A    between atoms: _133  and  _135
REMARK   42  A    between atoms: _135  and  _136
REMARK   43  A    between atoms: _135  and  _138
REMARK   44  A    between atoms: _138  and  _139
REMARK   45  A    between atoms: _139  and  _140
REMARK   46  A    between atoms: _143  and  _145
REMARK   47  A    between atoms: _145  and  _146
REMARK   48  A    between atoms: _145  and  _148
REMARK   49  A    between atoms: _148  and  _149
REMARK   50  A    between atoms: _154  and  _156
REMARK   51  A    between atoms: _156  and  _157
REMARK   52  A    between atoms: _156  and  _159
REMARK   53  A    between atoms: _159  and  _160
REMARK   54  A    between atoms: _160  and  _161
REMARK   55  A    between atoms: _164  and  _166
REMARK   56  A    between atoms: _166  and  _167
REMARK   57  A    between atoms: _166  and  _169
REMARK   58  A    between atoms: _169  and  _170
REMARK   59  A    between atoms: _173  and  _175
REMARK   60  A    between atoms: _175  and  _176
REMARK   61  A    between atoms: _175  and  _178
REMARK   62  A    between atoms: _178  and  _179
REMARK   63  A    between atoms: _180  and  ZN_374
REMARK   64  A    between atoms: _184  and  _186
REMARK   65  A    between atoms: _186  and  _187
REMARK   66  A    between atoms: _186  and  _189
REMARK   67  A    between atoms: _189  and  _190
REMARK   68  A    between atoms: _193  and  _195
REMARK   69  A    between atoms: _195  and  _196
REMARK   70  A    between atoms: _195  and  _198
REMARK   71  A    between atoms: _201  and  _203
REMARK   72  A    between atoms: _203  and  _204
REMARK   73  A    between atoms: _203  and  _206
REMARK   74  A    between atoms: _206  and  _207
REMARK   75  A    between atoms: _212  and  _214
REMARK   76  A    between atoms: _214  and  _215
REMARK   77  A    between atoms: _214  and  _217
REMARK   78  A    between atoms: _217  and  _218
REMARK   79  A    between atoms: _224  and  _226
REMARK   80  A    between atoms: _226  and  _227
REMARK   81  A    between atoms: _226  and  _229
REMARK   82  A    between atoms: _232  and  _234
REMARK   83  A    between atoms: _234  and  _235
REMARK   84  A    between atoms: _234  and  _237
REMARK   85  A    between atoms: _237  and  _238
REMARK   86  A    between atoms: _241  and  _243
REMARK   87  A    between atoms: _243  and  _244
REMARK   88  A    between atoms: _247  and  _249
REMARK   89  A    between atoms: _249  and  _250
REMARK   90  A    between atoms: _249  and  _252
REMARK   91  A    between atoms: _255  and  _257
REMARK   92  A    between atoms: _257  and  _258
REMARK   93  A    between atoms: _257  and  _260
REMARK   94  A    between atoms: _260  and  _261
REMARK   95  A    between atoms: _263  and  _265
REMARK   96  A    between atoms: _265  and  _266
REMARK   97  A    between atoms: _265  and  _268
REMARK   98  A    between atoms: _268  and  _269
REMARK   99  A    between atoms: _272  and  _274
REMARK  100  A    between atoms: _274  and  _275
REMARK  101  A    between atoms: _274  and  _277
REMARK  102  A    between atoms: _277  and  _278
REMARK  103  A    between atoms: _281  and  _283
REMARK  104  A    between atoms: _283  and  _284
REMARK  105  A    between atoms: _283  and  _286
REMARK  106  A    between atoms: _286  and  _287
REMARK  107  A    between atoms: _291  and  _292
REMARK  108  A    between atoms: _298  and  _299
REMARK  109  A    between atoms: _304  and  _306
REMARK  110  A    between atoms: _306  and  _307
REMARK  111  A    between atoms: _306  and  _309
REMARK  112  A    between atoms: _309  and  _310
REMARK  113  A    between atoms: _313  and  _315
REMARK  114  A    between atoms: _315  and  _316
REMARK  115  A    between atoms: _315  and  _318
REMARK  116  A    between atoms: _318  and  _319
REMARK  117  A    between atoms: _322  and  _324
REMARK  118  A    between atoms: _324  and  _325
REMARK  119  A    between atoms: _324  and  _327
REMARK  120  A    between atoms: _330  and  _332
REMARK  121  A    between atoms: _332  and  _333
REMARK  122  A    between atoms: _332  and  _335
REMARK  123  A    between atoms: _335  and  _336
REMARK  124  A    between atoms: _346  and  _348
REMARK  125  A    between atoms: _348  and  _349
REMARK  126  A    between atoms: _348  and  _351
REMARK  127  A    between atoms: _351  and  _352
REMARK  128  A    between atoms: _357  and  _359
REMARK  129  A    between atoms: _359  and  _360
REMARK  130  A    between atoms: _359  and  _362
REMARK  131  A    between atoms: _362  and  _363
REMARK  132  A    between atoms: _363  and  _364
REMARK  133  A    between atoms: _364  and  _365
REMARK                            x       y       z     vdW  Elec       q    Type
REMARK                         _______ _______ _______ _____ _____    ______ ____
ROOT
ATOM      1  CG  TRP A   1      26.726  -0.198  11.972  0.00  0.00    -0.002 A 
ATOM      2  CD2 TRP A   1      25.374  -0.688  11.965  0.00  0.00    +0.013 A 
ATOM      3  CE3 TRP A   1      24.802  -1.949  12.191  0.00  0.00    +0.001 A 
ATOM      4  CZ3 TRP A   1      23.340  -2.084  12.018  0.00  0.00    +0.000 A 
ATOM      5  CH2 TRP A   1      22.577  -0.997  11.669  0.00  0.00    +0.001 A 
ATOM      6  CZ2 TRP A   1      23.150   0.226  11.413  0.00  0.00    +0.017 A 
ATOM      7  CE2 TRP A   1      24.548   0.370  11.558  0.00  0.00    +0.056 A 
ATOM      8  NE1 TRP A   1      25.332   1.488  11.374  0.00  0.00    -0.352 N 
ATOM      9  HE1 TRP A   1      24.990   2.428  11.089  0.00  0.00    +0.166 HD
ATOM     10  CD1 TRP A   1      26.652   1.152  11.632  0.00  0.00    +0.068 A 
ENDROOT
BRANCH   1  11
ATOM     11  CB  TRP A   1      27.964  -1.004  12.348  0.00  0.00    +0.053 C 
BRANCH  11  12
ATOM     12  CA  TRP A   1      28.642  -1.678  11.130  0.00  0.00    +0.137 C 
BRANCH  12  13
ATOM     13  N   TRP A   1      29.274  -0.674  10.314  0.00  0.00    -0.239 NA
ATOM     14  H   TRP A   1      28.982   0.322  10.375  0.00  0.00    +0.142 HD
ENDBRANCH  12  13
BRANCH  12  15
ATOM     15  C   TRP A   1      27.680  -2.510  10.331  0.00  0.00    +0.224 C 
ATOM     16  O   TRP A   1      27.081  -2.070   9.306  0.00  0.00    -0.287 OA
ENDBRANCH  12  15
ENDBRANCH  11  12
ENDBRANCH   1  11
TORSDOF 4
REMARK  Name = ../refined-set-2016/4q7v/4q7v_pocket.pdb
REMARK  133 active torsions:
REMARK  status: ('A' for Active; 'I' for Inactive)
REMARK    1  A    between atoms: _1  and  _3
REMARK    2  A    between atoms: _3  and  _4
REMARK    3  A    between atoms: _3  and  _6
REMARK    4  A    between atoms: _6  and  _7
REMARK    5  A    between atoms: _17  and  _19
REMARK    6  A    between atoms: _19  and  _20
REMARK    7  A    between atoms: _19  and  _22
REMARK    8  A    between atoms: _22  and  _23
REMARK    9  A    between atoms: _28  and  _29
REMARK   10  A    between atoms: _31  and  _33
REMARK   11  A    between atoms: _33  and  _34
REMARK   12  A    between atoms: _33  and  _36
REMARK   13  A    between atoms: _36  and  _37
REMARK   14  A    between atoms: _39  and  _41
REMARK   15  A    between atoms: _41  and  _42
REMARK   16  A    between atoms: _41  and  _44
REMARK   17  A    between atoms: _44  and  _45
REMARK   18  A    between atoms: _50  and  _52
REMARK   19  A    between atoms: _52  and  _53
REMARK   20  A    between atoms: _52  and  _55
REMARK   21  A    between atoms: _55  and  _56
REMARK   22  A    between atoms: _61  and  _63
REMARK   23  A    between atoms: _63  and  _64
REMARK   24  A    between atoms: _67  and  _69
REMARK   25  A    between atoms: _69  and  _70
REMARK   26  A    between atoms: _69  and  _72
REMARK   27  A    between atoms: _72  and  _73
REMARK   28  A    between atoms: _78  and  _80
REMARK   29  A    between atoms: _80  and  _81
REMARK   30  A    between atoms: _80  and  _83
REMARK   31  A    between atoms: _83  and  _84
REMARK   32  A    between atoms: _87  and  _89
REMARK   33  A    between atoms: _89  and  _90
REMARK   34  A    between atoms: _89  and  _92
REMARK   35  A    between atoms: _92  and  _93
REMARK   36  A    between atoms: _93  and  _94
REMARK   37  A    between atoms: _99  and  _101
REMARK   38  A    between atoms: _112  and  _115
REMARK   39  A    between atoms: _115  and  _116
REMARK   40  A    between atoms: _124  and  _125
REMARK   41  A    between atoms: _133  and  _135
REMARK   42  A    between atoms: _135  and  _136
REMARK   43  A    between atoms: _135  and  _138
REMARK   44  A    between atoms: _138  and  _139
REMARK   45  A    between atoms: _139  and  _140
REMARK   46  A    between atoms: _143  and  _145
REMARK   47  A    between atoms: _145  and  _146
REMARK   48  A    between atoms: _145  and  _148
REMARK   49  A    between atoms: _148  and  _149
REMARK   50  A    between atoms: _154  and  _156
REMARK   51  A    between atoms: _156  and  _157
REMARK   52  A    between atoms: _156  and  _159
REMARK   53  A    between atoms: _159  and  _160
REMARK   54  A    between atoms: _160  and  _161
REMARK   55  A    between atoms: _164  and  _166
REMARK   56  A    between atoms: _166  and  _167
REMARK   57  A    between atoms: _166  and  _169
REMARK   58  A    between atoms: _169  and  _170
REMARK   59  A    between atoms: _173  and  _175
REMARK   60  A    between atoms: _175  and  _176
REMARK   61  A    between atoms: _175  and  _178
REMARK   62  A    between atoms: _178  and  _179
REMARK   63  A    between atoms: _180  and  ZN_374
REMARK   64  A    between atoms: _184  and  _186
REMARK   65  A    between atoms: _186  and  _187
REMARK   66  A    between atoms: _186  and  _189
REMARK   67  A    between atoms: _189  and  _190
REMARK   68  A    between atoms: _193  and  _195
REMARK   69  A    between atoms: _195  and  _196
REMARK   70  A    between atoms: _195  and  _198
REMARK   71  A    between atoms: _201  and  _203
REMARK   72  A    between atoms: _203  and  _204
REMARK   73  A    between atoms: _203  and  _206
REMARK   74  A    between atoms: _206  and  _207
REMARK   75  A    between atoms: _212  and  _214
REMARK   76  A    between atoms: _214  and  _215
REMARK   77  A    between atoms: _214  and  _217
REMARK   78  A    between atoms: _217  and  _218
REMARK   79  A    between atoms: _224  and  _226
REMARK   80  A    between atoms: _226  and  _227
REMARK   81  A    between atoms: _226  and  _229
REMARK   82  A    between atoms: _232  and  _234
REMARK   83  A    between atoms: _234  and  _235
REMARK   84  A    between atoms: _234  and  _237
REMARK   85  A    between atoms: _237  and  _238
REMARK   86  A    between atoms: _241  and  _243
REMARK   87  A    between atoms: _243  and  _244
REMARK   88  A    between atoms: _247  and  _249
REMARK   89  A    between atoms: _249  and  _250
REMARK   90  A    between atoms: _249  and  _252
REMARK   91  A    between atoms: _255  and  _257
REMARK   92  A    between atoms: _257  and  _258
REMARK   93  A    between atoms: _257  and  _260
REMARK   94  A    between atoms: _260  and  _261
REMARK   95  A    between atoms: _263  and  _265
REMARK   96  A    between atoms: _265  and  _266
REMARK   97  A    between atoms: _265  and  _268
REMARK   98  A    between atoms: _268  and  _269
REMARK   99  A    between atoms: _272  and  _274
REMARK  100  A    between atoms: _274  and  _275
REMARK  101  A    between atoms: _274  and  _277
REMARK  102  A    between atoms: _277  and  _278
REMARK  103  A    between atoms: _281  and  _283
REMARK  104  A    between atoms: _283  and  _284
REMARK  105  A    between atoms: _283  and  _286
REMARK  106  A    between atoms: _286  and  _287
REMARK  107  A    between atoms: _291  and  _292
REMARK  108  A    between atoms: _298  and  _299
REMARK  109  A    between atoms: _304  and  _306
REMARK  110  A    between atoms: _306  and  _307
REMARK  111  A    between atoms: _306  and  _309
REMARK  112  A    between atoms: _309  and  _310
REMARK  113  A    between atoms: _313  and  _315
REMARK  114  A    between atoms: _315  and  _316
REMARK  115  A    between atoms: _315  and  _318
REMARK  116  A    between atoms: _318  and  _319
REMARK  117  A    between atoms: _322  and  _324
REMARK  118  A    between atoms: _324  and  _325
REMARK  119  A    between atoms: _324  and  _327
REMARK  120  A    between atoms: _330  and  _332
REMARK  121  A    between atoms: _332  and  _333
REMARK  122  A    between atoms: _332  and  _335
REMARK  123  A    between atoms: _335  and  _336
REMARK  124  A    between atoms: _346  and  _348
REMARK  125  A    between atoms: _348  and  _349
REMARK  126  A    between atoms: _348  and  _351
REMARK  127  A    between atoms: _351  and  _352
REMARK  128  A    between atoms: _357  and  _359
REMARK  129  A    between atoms: _359  and  _360
REMARK  130  A    between atoms: _359  and  _362
REMARK  131  A    between atoms: _362  and  _363
REMARK  132  A    between atoms: _363  and  _364
REMARK  133  A    between atoms: _364  and  _365
REMARK                            x       y       z     vdW  Elec       q    Type
REMARK                         _______ _______ _______ _____ _____    ______ ____
ROOT
ATOM      1  CG  TYR A   1      23.059  -7.378  11.830  0.00  0.00    -0.020 A 
ATOM      2  CD2 TYR A   1      22.628  -7.387  13.160  0.00  0.00    -0.001 A 
ATOM      3  CE2 TYR A   1      21.811  -6.386  13.613  0.00  0.00    +0.036 A 
ATOM      4  CZ  TYR A   1      21.371  -5.395  12.759  0.00  0.00    +0.134 A 
ATOM      5  CE1 TYR A   1      21.801  -5.354  11.412  0.00  0.00    +0.036 A 
ATOM      6  CD1 TYR A   1      22.609  -6.386  10.967  0.00  0.00    -0.001 A 
ENDROOT
BRANCH   4   7
ATOM      7  OH  TYR A   1      20.507  -4.422  13.163  0.00  0.00    -0.506 OA
ATOM      8  HH  TYR A   1      20.282  -4.558  14.117  0.00  0.00    +0.292 HD
ENDBRANCH   4   7
BRANCH   1   9
ATOM      9  CB  TYR A   1      23.994  -8.450  11.344  0.00  0.00    +0.051 C 
BRANCH   9  10
ATOM     10  CA  TYR A   1      25.462  -8.077  11.522  0.00  0.00    +0.137 C 
BRANCH  10  11
ATOM     11  N   TYR A   1      25.817  -6.936  10.685  0.00  0.00    -0.239 NA
ATOM     12  H   TYR A   1      25.851  -7.043   9.651  0.00  0.00    +0.142 HD
ENDBRANCH  10  11
BRANCH  10  13
ATOM     13  C   TYR A   1      26.307  -9.299  11.248  0.00  0.00    +0.224 C 
ATOM     14  O   TYR A   1      25.937 -10.411  11.654  0.00  0.00    -0.287 OA
ENDBRANCH  10  13
ENDBRANCH   9  10
ENDBRANCH   1   9
TORSDOF 5
REMARK  Name = ../refined-set-2016/4q7v/4q7v_pocket.pdb
REMARK  133 active torsions:
REMARK  status: ('A' for Active; 'I' for Inactive)
REMARK    1  A    between atoms: _1  and  _3
REMARK    2  A    between atoms: _3  and  _4
REMARK    3  A    between atoms: _3  and  _6
REMARK    4  A    between atoms: _6  and  _7
REMARK    5  A    between atoms: _17  and  _19
REMARK    6  A    between atoms: _19  and  _20
REMARK    7  A    between atoms: _19  and  _22
REMARK    8  A    between atoms: _22  and  _23
REMARK    9  A    between atoms: _28  and  _29
REMARK   10  A    between atoms: _31  and  _33
REMARK   11  A    between atoms: _33  and  _34
REMARK   12  A    between atoms: _33  and  _36
REMARK   13  A    between atoms: _36  and  _37
REMARK   14  A    between atoms: _39  and  _41
REMARK   15  A    between atoms: _41  and  _42
REMARK   16  A    between atoms: _41  and  _44
REMARK   17  A    between atoms: _44  and  _45
REMARK   18  A    between atoms: _50  and  _52
REMARK   19  A    between atoms: _52  and  _53
REMARK   20  A    between atoms: _52  and  _55
REMARK   21  A    between atoms: _55  and  _56
REMARK   22  A    between atoms: _61  and  _63
REMARK   23  A    between atoms: _63  and  _64
REMARK   24  A    between atoms: _67  and  _69
REMARK   25  A    between atoms: _69  and  _70
REMARK   26  A    between atoms: _69  and  _72
REMARK   27  A    between atoms: _72  and  _73
REMARK   28  A    between atoms: _78  and  _80
REMARK   29  A    between atoms: _80  and  _81
REMARK   30  A    between atoms: _80  and  _83
REMARK   31  A    between atoms: _83  and  _84
REMARK   32  A    between atoms: _87  and  _89
REMARK   33  A    between atoms: _89  and  _90
REMARK   34  A    between atoms: _89  and  _92
REMARK   35  A    between atoms: _92  and  _93
REMARK   36  A    between atoms: _93  and  _94
REMARK   37  A    between atoms: _99  and  _101
REMARK   38  A    between atoms: _112  and  _115
REMARK   39  A    between atoms: _115  and  _116
REMARK   40  A    between atoms: _124  and  _125
REMARK   41  A    between atoms: _133  and  _135
REMARK   42  A    between atoms: _135  and  _136
REMARK   43  A    between atoms: _135  and  _138
REMARK   44  A    between atoms: _138  and  _139
REMARK   45  A    between atoms: _139  and  _140
REMARK   46  A    between atoms: _143  and  _145
REMARK   47  A    between atoms: _145  and  _146
REMARK   48  A    between atoms: _145  and  _148
REMARK   49  A    between atoms: _148  and  _149
REMARK   50  A    between atoms: _154  and  _156
REMARK   51  A    between atoms: _156  and  _157
REMARK   52  A    between atoms: _156  and  _159
REMARK   53  A    between atoms: _159  and  _160
REMARK   54  A    between atoms: _160  and  _161
REMARK   55  A    between atoms: _164  and  _166
REMARK   56  A    between atoms: _166  and  _167
REMARK   57  A    between atoms: _166  and  _169
REMARK   58  A    between atoms: _169  and  _170
REMARK   59  A    between atoms: _173  and  _175
REMARK   60  A    between atoms: _175  and  _176
REMARK   61  A    between atoms: _175  and  _178
REMARK   62  A    between atoms: _178  and  _179
REMARK   63  A    between atoms: _180  and  ZN_374
REMARK   64  A    between atoms: _184  and  _186
REMARK   65  A    between atoms: _186  and  _187
REMARK   66  A    between atoms: _186  and  _189
REMARK   67  A    between atoms: _189  and  _190
REMARK   68  A    between atoms: _193  and  _195
REMARK   69  A    between atoms: _195  and  _196
REMARK   70  A    between atoms: _195  and  _198
REMARK   71  A    between atoms: _201  and  _203
REMARK   72  A    between atoms: _203  and  _204
REMARK   73  A    between atoms: _203  and  _206
REMARK   74  A    between atoms: _206  and  _207
REMARK   75  A    between atoms: _212  and  _214
REMARK   76  A    between atoms: _214  and  _215
REMARK   77  A    between atoms: _214  and  _217
REMARK   78  A    between atoms: _217  and  _218
REMARK   79  A    between atoms: _224  and  _226
REMARK   80  A    between atoms: _226  and  _227
REMARK   81  A    between atoms: _226  and  _229
REMARK   82  A    between atoms: _232  and  _234
REMARK   83  A    between atoms: _234  and  _235
REMARK   84  A    between atoms: _234  and  _237
REMARK   85  A    between atoms: _237  and  _238
REMARK   86  A    between atoms: _241  and  _243
REMARK   87  A    between atoms: _243  and  _244
REMARK   88  A    between atoms: _247  and  _249
REMARK   89  A    between atoms: _249  and  _250
REMARK   90  A    between atoms: _249  and  _252
REMARK   91  A    between atoms: _255  and  _257
REMARK   92  A    between atoms: _257  and  _258
REMARK   93  A    between atoms: _257  and  _260
REMARK   94  A    between atoms: _260  and  _261
REMARK   95  A    between atoms: _263  and  _265
REMARK   96  A    between atoms: _265  and  _266
REMARK   97  A    between atoms: _265  and  _268
REMARK   98  A    between atoms: _268  and  _269
REMARK   99  A    between atoms: _272  and  _274
REMARK  100  A    between atoms: _274  and  _275
REMARK  101  A    between atoms: _274  and  _277
REMARK  102  A    between atoms: _277  and  _278
REMARK  103  A    between atoms: _281  and  _283
REMARK  104  A    between atoms: _283  and  _284
REMARK  105  A    between atoms: _283  and  _286
REMARK  106  A    between atoms: _286  and  _287
REMARK  107  A    between atoms: _291  and  _292
REMARK  108  A    between atoms: _298  and  _299
REMARK  109  A    between atoms: _304  and  _306
REMARK  110  A    between atoms: _306  and  _307
REMARK  111  A    between atoms: _306  and  _309
REMARK  112  A    between atoms: _309  and  _310
REMARK  113  A    between atoms: _313  and  _315
REMARK  114  A    between atoms: _315  and  _316
REMARK  115  A    between atoms: _315  and  _318
REMARK  116  A    between atoms: _318  and  _319
REMARK  117  A    between atoms: _322  and  _324
REMARK  118  A    between atoms: _324  and  _325
REMARK  119  A    between atoms: _324  and  _327
REMARK  120  A    between atoms: _330  and  _332
REMARK  121  A    between atoms: _332  and  _333
REMARK  122  A    between atoms: _332  and  _335
REMARK  123  A    between atoms: _335  and  _336
REMARK  124  A    between atoms: _346  and  _348
REMARK  125  A    between atoms: _348  and  _349
REMARK  126  A    between atoms: _348  and  _351
REMARK  127  A    between atoms: _351  and  _352
REMARK  128  A    between atoms: _357  and  _359
REMARK  129  A    between atoms: _359  and  _360
REMARK  130  A    between atoms: _359  and  _362
REMARK  131  A    between atoms: _362  and  _363
REMARK  132  A    between atoms: _363  and  _364
REMARK  133  A    between atoms: _364  and  _365
REMARK                            x       y       z     vdW  Elec       q    Type
REMARK                         _______ _______ _______ _____ _____    ______ ____
ROOT
ATOM      1  CA  SER A   1      18.172  -2.483  24.141  0.00  0.00    +0.163 C 
ENDROOT
BRANCH   1   2
ATOM      2  N   SER A   1      19.238  -1.618  24.643  0.00  0.00    -0.237 NA
ATOM      3  H   SER A   1      19.787  -1.078  23.944  0.00  0.00    +0.142 HD
ENDBRANCH   1   2
BRANCH   1   4
ATOM      4  C   SER A   1      18.731  -3.374  23.062  0.00  0.00    +0.227 C 
ATOM      5  O   SER A   1      19.687  -3.004  22.363  0.00  0.00    -0.287 OA
ENDBRANCH   1   4
BRANCH   1   6
ATOM      6  CB  SER A   1      16.971  -1.692  23.564  0.00  0.00    +0.162 C 
BRANCH   6   7
ATOM      7  OG  SER A   1      16.396  -0.924  24.660  0.00  0.00    -0.380 OA
ATOM      8  H   SER A   1      16.097  -1.542  25.373  0.00  0.00    +0.211 HD
ENDBRANCH   6   7
ENDBRANCH   1   6
TORSDOF 4
REMARK  Name = ../refined-set-2016/4q7v/4q7v_pocket.pdb
REMARK  133 active torsions:
REMARK  status: ('A' for Active; 'I' for Inactive)
REMARK    1  A    between atoms: _1  and  _3
REMARK    2  A    between atoms: _3  and  _4
REMARK    3  A    between atoms: _3  and  _6
REMARK    4  A    between atoms: _6  and  _7
REMARK    5  A    between atoms: _17  and  _19
REMARK    6  A    between atoms: _19  and  _20
REMARK    7  A    between atoms: _19  and  _22
REMARK    8  A    between atoms: _22  and  _23
REMARK    9  A    between atoms: _28  and  _29
REMARK   10  A    between atoms: _31  and  _33
REMARK   11  A    between atoms: _33  and  _34
REMARK   12  A    between atoms: _33  and  _36
REMARK   13  A    between atoms: _36  and  _37
REMARK   14  A    between atoms: _39  and  _41
REMARK   15  A    between atoms: _41  and  _42
REMARK   16  A    between atoms: _41  and  _44
REMARK   17  A    between atoms: _44  and  _45
REMARK   18  A    between atoms: _50  and  _52
REMARK   19  A    between atoms: _52  and  _53
REMARK   20  A    between atoms: _52  and  _55
REMARK   21  A    between atoms: _55  and  _56
REMARK   22  A    between atoms: _61  and  _63
REMARK   23  A    between atoms: _63  and  _64
REMARK   24  A    between atoms: _67  and  _69
REMARK   25  A    between atoms: _69  and  _70
REMARK   26  A    between atoms: _69  and  _72
REMARK   27  A    between atoms: _72  and  _73
REMARK   28  A    between atoms: _78  and  _80
REMARK   29  A    between atoms: _80  and  _81
REMARK   30  A    between atoms: _80  and  _83
REMARK   31  A    between atoms: _83  and  _84
REMARK   32  A    between atoms: _87  and  _89
REMARK   33  A    between atoms: _89  and  _90
REMARK   34  A    between atoms: _89  and  _92
REMARK   35  A    between atoms: _92  and  _93
REMARK   36  A    between atoms: _93  and  _94
REMARK   37  A    between atoms: _99  and  _101
REMARK   38  A    between atoms: _112  and  _115
REMARK   39  A    between atoms: _115  and  _116
REMARK   40  A    between atoms: _124  and  _125
REMARK   41  A    between atoms: _133  and  _135
REMARK   42  A    between atoms: _135  and  _136
REMARK   43  A    between atoms: _135  and  _138
REMARK   44  A    between atoms: _138  and  _139
REMARK   45  A    between atoms: _139  and  _140
REMARK   46  A    between atoms: _143  and  _145
REMARK   47  A    between atoms: _145  and  _146
REMARK   48  A    between atoms: _145  and  _148
REMARK   49  A    between atoms: _148  and  _149
REMARK   50  A    between atoms: _154  and  _156
REMARK   51  A    between atoms: _156  and  _157
REMARK   52  A    between atoms: _156  and  _159
REMARK   53  A    between atoms: _159  and  _160
REMARK   54  A    between atoms: _160  and  _161
REMARK   55  A    between atoms: _164  and  _166
REMARK   56  A    between atoms: _166  and  _167
REMARK   57  A    between atoms: _166  and  _169
REMARK   58  A    between atoms: _169  and  _170
REMARK   59  A    between atoms: _173  and  _175
REMARK   60  A    between atoms: _175  and  _176
REMARK   61  A    between atoms: _175  and  _178
REMARK   62  A    between atoms: _178  and  _179
REMARK   63  A    between atoms: _180  and  ZN_374
REMARK   64  A    between atoms: _184  and  _186
REMARK   65  A    between atoms: _186  and  _187
REMARK   66  A    between atoms: _186  and  _189
REMARK   67  A    between atoms: _189  and  _190
REMARK   68  A    between atoms: _193  and  _195
REMARK   69  A    between atoms: _195  and  _196
REMARK   70  A    between atoms: _195  and  _198
REMARK   71  A    between atoms: _201  and  _203
REMARK   72  A    between atoms: _203  and  _204
REMARK   73  A    between atoms: _203  and  _206
REMARK   74  A    between atoms: _206  and  _207
REMARK   75  A    between atoms: _212  and  _214
REMARK   76  A    between atoms: _214  and  _215
REMARK   77  A    between atoms: _214  and  _217
REMARK   78  A    between atoms: _217  and  _218
REMARK   79  A    between atoms: _224  and  _226
REMARK   80  A    between atoms: _226  and  _227
REMARK   81  A    between atoms: _226  and  _229
REMARK   82  A    between atoms: _232  and  _234
REMARK   83  A    between atoms: _234  and  _235
REMARK   84  A    between atoms: _234  and  _237
REMARK   85  A    between atoms: _237  and  _238
REMARK   86  A    between atoms: _241  and  _243
REMARK   87  A    between atoms: _243  and  _244
REMARK   88  A    between atoms: _247  and  _249
REMARK   89  A    between atoms: _249  and  _250
REMARK   90  A    between atoms: _249  and  _252
REMARK   91  A    between atoms: _255  and  _257
REMARK   92  A    between atoms: _257  and  _258
REMARK   93  A    between atoms: _257  and  _260
REMARK   94  A    between atoms: _260  and  _261
REMARK   95  A    between atoms: _263  and  _265
REMARK   96  A    between atoms: _265  and  _266
REMARK   97  A    between atoms: _265  and  _268
REMARK   98  A    between atoms: _268  and  _269
REMARK   99  A    between atoms: _272  and  _274
REMARK  100  A    between atoms: _274  and  _275
REMARK  101  A    between atoms: _274  and  _277
REMARK  102  A    between atoms: _277  and  _278
REMARK  103  A    between atoms: _281  and  _283
REMARK  104  A    between atoms: _283  and  _284
REMARK  105  A    between atoms: _283  and  _286
REMARK  106  A    between atoms: _286  and  _287
REMARK  107  A    between atoms: _291  and  _292
REMARK  108  A    between atoms: _298  and  _299
REMARK  109  A    between atoms: _304  and  _306
REMARK  110  A    between atoms: _306  and  _307
REMARK  111  A    between atoms: _306  and  _309
REMARK  112  A    between atoms: _309  and  _310
REMARK  113  A    between atoms: _313  and  _315
REMARK  114  A    between atoms: _315  and  _316
REMARK  115  A    between atoms: _315  and  _318
REMARK  116  A    between atoms: _318  and  _319
REMARK  117  A    between atoms: _322  and  _324
REMARK  118  A    between atoms: _324  and  _325
REMARK  119  A    between atoms: _324  and  _327
REMARK  120  A    between atoms: _330  and  _332
REMARK  121  A    between atoms: _332  and  _333
REMARK  122  A    between atoms: _332  and  _335
REMARK  123  A    between atoms: _335  and  _336
REMARK  124  A    between atoms: _346  and  _348
REMARK  125  A    between atoms: _348  and  _349
REMARK  126  A    between atoms: _348  and  _351
REMARK  127  A    between atoms: _351  and  _352
REMARK  128  A    between atoms: _357  and  _359
REMARK  129  A    between atoms: _359  and  _360
REMARK  130  A    between atoms: _359  and  _362
REMARK  131  A    between atoms: _362  and  _363
REMARK  132  A    between atoms: _363  and  _364
REMARK  133  A    between atoms: _364  and  _365
REMARK                            x       y       z     vdW  Elec       q    Type
REMARK                         _______ _______ _______ _____ _____    ______ ____
ROOT
ATOM      1  CB  ASN A   1      18.547   1.868   5.294  0.00  0.00    +0.110 C 
ENDROOT
BRANCH   1   2
ATOM      2  CG  ASN A   1      18.298   1.004   6.522  0.00  0.00    +0.221 C 
ATOM      3  ND2 ASN A   1      17.800   1.630   7.586  0.00  0.00    -0.329 N 
ATOM      4 HD21 ASN A   1      17.579   1.093   8.449  0.00  0.00    +0.145 HD
ATOM      5 HD22 ASN A   1      17.632   2.656   7.554  0.00  0.00    +0.145 HD
ATOM      6  OD1 ASN A   1      18.519  -0.191   6.491  0.00  0.00    -0.275 OA
ENDBRANCH   1   2
BRANCH   1   7
ATOM      7  CA  ASN A   1      18.883   1.025   4.047  0.00  0.00    +0.142 C 
BRANCH   7   8
ATOM      8  N   ASN A   1      17.758   0.175   3.643  0.00  0.00    -0.239 NA
ATOM      9  H   ASN A   1      17.190  -0.333   4.350  0.00  0.00    +0.142 HD
ENDBRANCH   7   8
BRANCH   7  10
ATOM     10  C   ASN A   1      20.133   0.259   4.290  0.00  0.00    +0.225 C 
ATOM     11  O   ASN A   1      21.111   0.800   4.868  0.00  0.00    -0.287 OA
ENDBRANCH   7  10
ENDBRANCH   1   7
TORSDOF 4
REMARK  Name = ../refined-set-2016/4q7v/4q7v_pocket.pdb
REMARK  133 active torsions:
REMARK  status: ('A' for Active; 'I' for Inactive)
REMARK    1  A    between atoms: _1  and  _3
REMARK    2  A    between atoms: _3  and  _4
REMARK    3  A    between atoms: _3  and  _6
REMARK    4  A    between atoms: _6  and  _7
REMARK    5  A    between atoms: _17  and  _19
REMARK    6  A    between atoms: _19  and  _20
REMARK    7  A    between atoms: _19  and  _22
REMARK    8  A    between atoms: _22  and  _23
REMARK    9  A    between atoms: _28  and  _29
REMARK   10  A    between atoms: _31  and  _33
REMARK   11  A    between atoms: _33  and  _34
REMARK   12  A    between atoms: _33  and  _36
REMARK   13  A    between atoms: _36  and  _37
REMARK   14  A    between atoms: _39  and  _41
REMARK   15  A    between atoms: _41  and  _42
REMARK   16  A    between atoms: _41  and  _44
REMARK   17  A    between atoms: _44  and  _45
REMARK   18  A    between atoms: _50  and  _52
REMARK   19  A    between atoms: _52  and  _53
REMARK   20  A    between atoms: _52  and  _55
REMARK   21  A    between atoms: _55  and  _56
REMARK   22  A    between atoms: _61  and  _63
REMARK   23  A    between atoms: _63  and  _64
REMARK   24  A    between atoms: _67  and  _69
REMARK   25  A    between atoms: _69  and  _70
REMARK   26  A    between atoms: _69  and  _72
REMARK   27  A    between atoms: _72  and  _73
REMARK   28  A    between atoms: _78  and  _80
REMARK   29  A    between atoms: _80  and  _81
REMARK   30  A    between atoms: _80  and  _83
REMARK   31  A    between atoms: _83  and  _84
REMARK   32  A    between atoms: _87  and  _89
REMARK   33  A    between atoms: _89  and  _90
REMARK   34  A    between atoms: _89  and  _92
REMARK   35  A    between atoms: _92  and  _93
REMARK   36  A    between atoms: _93  and  _94
REMARK   37  A    between atoms: _99  and  _101
REMARK   38  A    between atoms: _112  and  _115
REMARK   39  A    between atoms: _115  and  _116
REMARK   40  A    between atoms: _124  and  _125
REMARK   41  A    between atoms: _133  and  _135
REMARK   42  A    between atoms: _135  and  _136
REMARK   43  A    between atoms: _135  and  _138
REMARK   44  A    between atoms: _138  and  _139
REMARK   45  A    between atoms: _139  and  _140
REMARK   46  A    between atoms: _143  and  _145
REMARK   47  A    between atoms: _145  and  _146
REMARK   48  A    between atoms: _145  and  _148
REMARK   49  A    between atoms: _148  and  _149
REMARK   50  A    between atoms: _154  and  _156
REMARK   51  A    between atoms: _156  and  _157
REMARK   52  A    between atoms: _156  and  _159
REMARK   53  A    between atoms: _159  and  _160
REMARK   54  A    between atoms: _160  and  _161
REMARK   55  A    between atoms: _164  and  _166
REMARK   56  A    between atoms: _166  and  _167
REMARK   57  A    between atoms: _166  and  _169
REMARK   58  A    between atoms: _169  and  _170
REMARK   59  A    between atoms: _173  and  _175
REMARK   60  A    between atoms: _175  and  _176
REMARK   61  A    between atoms: _175  and  _178
REMARK   62  A    between atoms: _178  and  _179
REMARK   63  A    between atoms: _180  and  ZN_374
REMARK   64  A    between atoms: _184  and  _186
REMARK   65  A    between atoms: _186  and  _187
REMARK   66  A    between atoms: _186  and  _189
REMARK   67  A    between atoms: _189  and  _190
REMARK   68  A    between atoms: _193  and  _195
REMARK   69  A    between atoms: _195  and  _196
REMARK   70  A    between atoms: _195  and  _198
REMARK   71  A    between atoms: _201  and  _203
REMARK   72  A    between atoms: _203  and  _204
REMARK   73  A    between atoms: _203  and  _206
REMARK   74  A    between atoms: _206  and  _207
REMARK   75  A    between atoms: _212  and  _214
REMARK   76  A    between atoms: _214  and  _215
REMARK   77  A    between atoms: _214  and  _217
REMARK   78  A    between atoms: _217  and  _218
REMARK   79  A    between atoms: _224  and  _226
REMARK   80  A    between atoms: _226  and  _227
REMARK   81  A    between atoms: _226  and  _229
REMARK   82  A    between atoms: _232  and  _234
REMARK   83  A    between atoms: _234  and  _235
REMARK   84  A    between atoms: _234  and  _237
REMARK   85  A    between atoms: _237  and  _238
REMARK   86  A    between atoms: _241  and  _243
REMARK   87  A    between atoms: _243  and  _244
REMARK   88  A    between atoms: _247  and  _249
REMARK   89  A    between atoms: _249  and  _250
REMARK   90  A    between atoms: _249  and  _252
REMARK   91  A    between atoms: _255  and  _257
REMARK   92  A    between atoms: _257  and  _258
REMARK   93  A    between atoms: _257  and  _260
REMARK   94  A    between atoms: _260  and  _261
REMARK   95  A    between atoms: _263  and  _265
REMARK   96  A    between atoms: _265  and  _266
REMARK   97  A    between atoms: _265  and  _268
REMARK   98  A    between atoms: _268  and  _269
REMARK   99  A    between atoms: _272  and  _274
REMARK  100  A    between atoms: _274  and  _275
REMARK  101  A    between atoms: _274  and  _277
REMARK  102  A    between atoms: _277  and  _278
REMARK  103  A    between atoms: _281  and  _283
REMARK  104  A    between atoms: _283  and  _284
REMARK  105  A    between atoms: _283  and  _286
REMARK  106  A    between atoms: _286  and  _287
REMARK  107  A    between atoms: _291  and  _292
REMARK  108  A    between atoms: _298  and  _299
REMARK  109  A    between atoms: _304  and  _306
REMARK  110  A    between atoms: _306  and  _307
REMARK  111  A    between atoms: _306  and  _309
REMARK  112  A    between atoms: _309  and  _310
REMARK  113  A    between atoms: _313  and  _315
REMARK  114  A    between atoms: _315  and  _316
REMARK  115  A    between atoms: _315  and  _318
REMARK  116  A    between atoms: _318  and  _319
REMARK  117  A    between atoms: _322  and  _324
REMARK  118  A    between atoms: _324  and  _325
REMARK  119  A    between atoms: _324  and  _327
REMARK  120  A    between atoms: _330  and  _332
REMARK  121  A    between atoms: _332  and  _333
REMARK  122  A    between atoms: _332  and  _335
REMARK  123  A    between atoms: _335  and  _336
REMARK  124  A    between atoms: _346  and  _348
REMARK  125  A    between atoms: _348  and  _349
REMARK  126  A    between atoms: _348  and  _351
REMARK  127  A    between atoms: _351  and  _352
REMARK  128  A    between atoms: _357  and  _359
REMARK  129  A    between atoms: _359  and  _360
REMARK  130  A    between atoms: _359  and  _362
REMARK  131  A    between atoms: _362  and  _363
REMARK  132  A    between atoms: _363  and  _364
REMARK  133  A    between atoms: _364  and  _365
REMARK                            x       y       z     vdW  Elec       q    Type
REMARK                         _______ _______ _______ _____ _____    ______ ____
ROOT
ATOM      1  CA  HIS A   1      20.316  -3.081   7.456  0.00  0.00    +0.151 C 
ENDROOT
BRANCH   1   2
ATOM      2  C   HIS A   1      18.937  -3.638   7.686  0.00  0.00    +0.239 C 
ATOM      3  O   HIS A   1      18.789  -4.637   8.393  0.00  0.00    -0.274 OA
ATOM      4  N   ALA A   2      17.928  -2.983   7.139  0.00  0.00    -0.298 N 
ATOM      5  H   ALA A   2      18.141  -2.108   6.619  0.00  0.00    +0.150 HD
BRANCH   4   6
ATOM      6  CA  ALA A   2      16.523  -3.411   7.218  0.00  0.00    +0.137 C 
ATOM      7  CB  ALA A   2      15.913  -3.122   8.625  0.00  0.00    +0.030 C 
BRANCH   6   8
ATOM      8  C   ALA A   2      15.798  -2.640   6.115  0.00  0.00    +0.227 C 
ATOM      9  O   ALA A   2      16.452  -2.013   5.281  0.00  0.00    -0.286 OA
ENDBRANCH   6   8
ENDBRANCH   4   6
ENDBRANCH   1   2
BRANCH   1  10
ATOM     10  N   HIS A   1      20.396  -2.334   6.155  0.00  0.00    -0.238 NA
ATOM     11  H   HIS A   1      19.696  -1.596   5.940  0.00  0.00    +0.142 HD
ENDBRANCH   1  10
BRANCH   1  12
ATOM     12  CB  HIS A   1      20.665  -2.149   8.656  0.00  0.00    +0.074 C 
BRANCH  12  13
ATOM     13  CG  HIS A   1      21.961  -1.436   8.443  0.00  0.00    +0.082 A 
ATOM     14  CD2 HIS A   1      23.239  -1.898   8.489  0.00  0.00    +0.115 A 
ATOM     15  NE2 HIS A   1      24.070  -0.831   8.209  0.00  0.00    -0.221 NA
ATOM     16  CE1 HIS A   1      23.325   0.245   7.980  0.00  0.00    +0.199 A 
ATOM     17  ND1 HIS A   1      22.039  -0.094   8.128  0.00  0.00    -0.227 NA
ENDBRANCH  12  13
ENDBRANCH   1  12
TORSDOF 6
REMARK  Name = ../refined-set-2016/4q7v/4q7v_pocket.pdb
REMARK  133 active torsions:
REMARK  status: ('A' for Active; 'I' for Inactive)
REMARK    1  A    between atoms: _1  and  _3
REMARK    2  A    between atoms: _3  and  _4
REMARK    3  A    between atoms: _3  and  _6
REMARK    4  A    between atoms: _6  and  _7
REMARK    5  A    between atoms: _17  and  _19
REMARK    6  A    between atoms: _19  and  _20
REMARK    7  A    between atoms: _19  and  _22
REMARK    8  A    between atoms: _22  and  _23
REMARK    9  A    between atoms: _28  and  _29
REMARK   10  A    between atoms: _31  and  _33
REMARK   11  A    between atoms: _33  and  _34
REMARK   12  A    between atoms: _33  and  _36
REMARK   13  A    between atoms: _36  and  _37
REMARK   14  A    between atoms: _39  and  _41
REMARK   15  A    between atoms: _41  and  _42
REMARK   16  A    between atoms: _41  and  _44
REMARK   17  A    between atoms: _44  and  _45
REMARK   18  A    between atoms: _50  and  _52
REMARK   19  A    between atoms: _52  and  _53
REMARK   20  A    between atoms: _52  and  _55
REMARK   21  A    between atoms: _55  and  _56
REMARK   22  A    between atoms: _61  and  _63
REMARK   23  A    between atoms: _63  and  _64
REMARK   24  A    between atoms: _67  and  _69
REMARK   25  A    between atoms: _69  and  _70
REMARK   26  A    between atoms: _69  and  _72
REMARK   27  A    between atoms: _72  and  _73
REMARK   28  A    between atoms: _78  and  _80
REMARK   29  A    between atoms: _80  and  _81
REMARK   30  A    between atoms: _80  and  _83
REMARK   31  A    between atoms: _83  and  _84
REMARK   32  A    between atoms: _87  and  _89
REMARK   33  A    between atoms: _89  and  _90
REMARK   34  A    between atoms: _89  and  _92
REMARK   35  A    between atoms: _92  and  _93
REMARK   36  A    between atoms: _93  and  _94
REMARK   37  A    between atoms: _99  and  _101
REMARK   38  A    between atoms: _112  and  _115
REMARK   39  A    between atoms: _115  and  _116
REMARK   40  A    between atoms: _124  and  _125
REMARK   41  A    between atoms: _133  and  _135
REMARK   42  A    between atoms: _135  and  _136
REMARK   43  A    between atoms: _135  and  _138
REMARK   44  A    between atoms: _138  and  _139
REMARK   45  A    between atoms: _139  and  _140
REMARK   46  A    between atoms: _143  and  _145
REMARK   47  A    between atoms: _145  and  _146
REMARK   48  A    between atoms: _145  and  _148
REMARK   49  A    between atoms: _148  and  _149
REMARK   50  A    between atoms: _154  and  _156
REMARK   51  A    between atoms: _156  and  _157
REMARK   52  A    between atoms: _156  and  _159
REMARK   53  A    between atoms: _159  and  _160
REMARK   54  A    between atoms: _160  and  _161
REMARK   55  A    between atoms: _164  and  _166
REMARK   56  A    between atoms: _166  and  _167
REMARK   57  A    between atoms: _166  and  _169
REMARK   58  A    between atoms: _169  and  _170
REMARK   59  A    between atoms: _173  and  _175
REMARK   60  A    between atoms: _175  and  _176
REMARK   61  A    between atoms: _175  and  _178
REMARK   62  A    between atoms: _178  and  _179
REMARK   63  A    between atoms: _180  and  ZN_374
REMARK   64  A    between atoms: _184  and  _186
REMARK   65  A    between atoms: _186  and  _187
REMARK   66  A    between atoms: _186  and  _189
REMARK   67  A    between atoms: _189  and  _190
REMARK   68  A    between atoms: _193  and  _195
REMARK   69  A    between atoms: _195  and  _196
REMARK   70  A    between atoms: _195  and  _198
REMARK   71  A    between atoms: _201  and  _203
REMARK   72  A    between atoms: _203  and  _204
REMARK   73  A    between atoms: _203  and  _206
REMARK   74  A    between atoms: _206  and  _207
REMARK   75  A    between atoms: _212  and  _214
REMARK   76  A    between atoms: _214  and  _215
REMARK   77  A    between atoms: _214  and  _217
REMARK   78  A    between atoms: _217  and  _218
REMARK   79  A    between atoms: _224  and  _226
REMARK   80  A    between atoms: _226  and  _227
REMARK   81  A    between atoms: _226  and  _229
REMARK   82  A    between atoms: _232  and  _234
REMARK   83  A    between atoms: _234  and  _235
REMARK   84  A    between atoms: _234  and  _237
REMARK   85  A    between atoms: _237  and  _238
REMARK   86  A    between atoms: _241  and  _243
REMARK   87  A    between atoms: _243  and  _244
REMARK   88  A    between atoms: _247  and  _249
REMARK   89  A    between atoms: _249  and  _250
REMARK   90  A    between atoms: _249  and  _252
REMARK   91  A    between atoms: _255  and  _257
REMARK   92  A    between atoms: _257  and  _258
REMARK   93  A    between atoms: _257  and  _260
REMARK   94  A    between atoms: _260  and  _261
REMARK   95  A    between atoms: _263  and  _265
REMARK   96  A    between atoms: _265  and  _266
REMARK   97  A    between atoms: _265  and  _268
REMARK   98  A    between atoms: _268  and  _269
REMARK   99  A    between atoms: _272  and  _274
REMARK  100  A    between atoms: _274  and  _275
REMARK  101  A    between atoms: _274  and  _277
REMARK  102  A    between atoms: _277  and  _278
REMARK  103  A    between atoms: _281  and  _283
REMARK  104  A    between atoms: _283  and  _284
REMARK  105  A    between atoms: _283  and  _286
REMARK  106  A    between atoms: _286  and  _287
REMARK  107  A    between atoms: _291  and  _292
REMARK  108  A    between atoms: _298  and  _299
REMARK  109  A    between atoms: _304  and  _306
REMARK  110  A    between atoms: _306  and  _307
REMARK  111  A    between atoms: _306  and  _309
REMARK  112  A    between atoms: _309  and  _310
REMARK  113  A    between atoms: _313  and  _315
REMARK  114  A    between atoms: _315  and  _316
REMARK  115  A    between atoms: _315  and  _318
REMARK  116  A    between atoms: _318  and  _319
REMARK  117  A    between atoms: _322  and  _324
REMARK  118  A    between atoms: _324  and  _325
REMARK  119  A    between atoms: _324  and  _327
REMARK  120  A    between atoms: _330  and  _332
REMARK  121  A    between atoms: _332  and  _333
REMARK  122  A    between atoms: _332  and  _335
REMARK  123  A    between atoms: _335  and  _336
REMARK  124  A    between atoms: _346  and  _348
REMARK  125  A    between atoms: _348  and  _349
REMARK  126  A    between atoms: _348  and  _351
REMARK  127  A    between atoms: _351  and  _352
REMARK  128  A    between atoms: _357  and  _359
REMARK  129  A    between atoms: _359  and  _360
REMARK  130  A    between atoms: _359  and  _362
REMARK  131  A    between atoms: _362  and  _363
REMARK  132  A    between atoms: _363  and  _364
REMARK  133  A    between atoms: _364  and  _365
REMARK                            x       y       z     vdW  Elec       q    Type
REMARK                         _______ _______ _______ _____ _____    ______ ____
ROOT
ATOM      1  CB  ASN A   1      12.693   2.592   6.946  0.00  0.00    +0.110 C 
ENDROOT
BRANCH   1   2
ATOM      2  CG  ASN A   1      13.822   2.348   7.889  0.00  0.00    +0.221 C 
ATOM      3  OD1 ASN A   1      13.957   1.289   8.539  0.00  0.00    -0.275 OA
ATOM      4  ND2 ASN A   1      14.705   3.318   7.945  0.00  0.00    -0.329 N 
ATOM      5 HD21 ASN A   1      15.549   3.219   8.544  0.00  0.00    +0.145 HD
ATOM      6 HD22 ASN A   1      14.560   4.186   7.390  0.00  0.00    +0.145 HD
ENDBRANCH   1   2
BRANCH   1   7
ATOM      7  CA  ASN A   1      11.918   1.302   6.564  0.00  0.00    +0.142 C 
BRANCH   7   8
ATOM      8  N   ASN A   1      12.760   0.401   5.823  0.00  0.00    -0.239 NA
ATOM      9  H   ASN A   1      13.316   0.755   5.018  0.00  0.00    +0.142 HD
ENDBRANCH   7   8
BRANCH   7  10
ATOM     10  C   ASN A   1      10.724   1.688   5.741  0.00  0.00    +0.225 C 
ATOM     11  O   ASN A   1      10.898   2.105   4.596  0.00  0.00    -0.287 OA
ENDBRANCH   7  10
ENDBRANCH   1   7
TORSDOF 4
REMARK  Name = ../refined-set-2016/4q7v/4q7v_pocket.pdb
REMARK  133 active torsions:
REMARK  status: ('A' for Active; 'I' for Inactive)
REMARK    1  A    between atoms: _1  and  _3
REMARK    2  A    between atoms: _3  and  _4
REMARK    3  A    between atoms: _3  and  _6
REMARK    4  A    between atoms: _6  and  _7
REMARK    5  A    between atoms: _17  and  _19
REMARK    6  A    between atoms: _19  and  _20
REMARK    7  A    between atoms: _19  and  _22
REMARK    8  A    between atoms: _22  and  _23
REMARK    9  A    between atoms: _28  and  _29
REMARK   10  A    between atoms: _31  and  _33
REMARK   11  A    between atoms: _33  and  _34
REMARK   12  A    between atoms: _33  and  _36
REMARK   13  A    between atoms: _36  and  _37
REMARK   14  A    between atoms: _39  and  _41
REMARK   15  A    between atoms: _41  and  _42
REMARK   16  A    between atoms: _41  and  _44
REMARK   17  A    between atoms: _44  and  _45
REMARK   18  A    between atoms: _50  and  _52
REMARK   19  A    between atoms: _52  and  _53
REMARK   20  A    between atoms: _52  and  _55
REMARK   21  A    between atoms: _55  and  _56
REMARK   22  A    between atoms: _61  and  _63
REMARK   23  A    between atoms: _63  and  _64
REMARK   24  A    between atoms: _67  and  _69
REMARK   25  A    between atoms: _69  and  _70
REMARK   26  A    between atoms: _69  and  _72
REMARK   27  A    between atoms: _72  and  _73
REMARK   28  A    between atoms: _78  and  _80
REMARK   29  A    between atoms: _80  and  _81
REMARK   30  A    between atoms: _80  and  _83
REMARK   31  A    between atoms: _83  and  _84
REMARK   32  A    between atoms: _87  and  _89
REMARK   33  A    between atoms: _89  and  _90
REMARK   34  A    between atoms: _89  and  _92
REMARK   35  A    between atoms: _92  and  _93
REMARK   36  A    between atoms: _93  and  _94
REMARK   37  A    between atoms: _99  and  _101
REMARK   38  A    between atoms: _112  and  _115
REMARK   39  A    between atoms: _115  and  _116
REMARK   40  A    between atoms: _124  and  _125
REMARK   41  A    between atoms: _133  and  _135
REMARK   42  A    between atoms: _135  and  _136
REMARK   43  A    between atoms: _135  and  _138
REMARK   44  A    between atoms: _138  and  _139
REMARK   45  A    between atoms: _139  and  _140
REMARK   46  A    between atoms: _143  and  _145
REMARK   47  A    between atoms: _145  and  _146
REMARK   48  A    between atoms: _145  and  _148
REMARK   49  A    between atoms: _148  and  _149
REMARK   50  A    between atoms: _154  and  _156
REMARK   51  A    between atoms: _156  and  _157
REMARK   52  A    between atoms: _156  and  _159
REMARK   53  A    between atoms: _159  and  _160
REMARK   54  A    between atoms: _160  and  _161
REMARK   55  A    between atoms: _164  and  _166
REMARK   56  A    between atoms: _166  and  _167
REMARK   57  A    between atoms: _166  and  _169
REMARK   58  A    between atoms: _169  and  _170
REMARK   59  A    between atoms: _173  and  _175
REMARK   60  A    between atoms: _175  and  _176
REMARK   61  A    between atoms: _175  and  _178
REMARK   62  A    between atoms: _178  and  _179
REMARK   63  A    between atoms: _180  and  ZN_374
REMARK   64  A    between atoms: _184  and  _186
REMARK   65  A    between atoms: _186  and  _187
REMARK   66  A    between atoms: _186  and  _189
REMARK   67  A    between atoms: _189  and  _190
REMARK   68  A    between atoms: _193  and  _195
REMARK   69  A    between atoms: _195  and  _196
REMARK   70  A    between atoms: _195  and  _198
REMARK   71  A    between atoms: _201  and  _203
REMARK   72  A    between atoms: _203  and  _204
REMARK   73  A    between atoms: _203  and  _206
REMARK   74  A    between atoms: _206  and  _207
REMARK   75  A    between atoms: _212  and  _214
REMARK   76  A    between atoms: _214  and  _215
REMARK   77  A    between atoms: _214  and  _217
REMARK   78  A    between atoms: _217  and  _218
REMARK   79  A    between atoms: _224  and  _226
REMARK   80  A    between atoms: _226  and  _227
REMARK   81  A    between atoms: _226  and  _229
REMARK   82  A    between atoms: _232  and  _234
REMARK   83  A    between atoms: _234  and  _235
REMARK   84  A    between atoms: _234  and  _237
REMARK   85  A    between atoms: _237  and  _238
REMARK   86  A    between atoms: _241  and  _243
REMARK   87  A    between atoms: _243  and  _244
REMARK   88  A    between atoms: _247  and  _249
REMARK   89  A    between atoms: _249  and  _250
REMARK   90  A    between atoms: _249  and  _252
REMARK   91  A    between atoms: _255  and  _257
REMARK   92  A    between atoms: _257  and  _258
REMARK   93  A    between atoms: _257  and  _260
REMARK   94  A    between atoms: _260  and  _261
REMARK   95  A    between atoms: _263  and  _265
REMARK   96  A    between atoms: _265  and  _266
REMARK   97  A    between atoms: _265  and  _268
REMARK   98  A    between atoms: _268  and  _269
REMARK   99  A    between atoms: _272  and  _274
REMARK  100  A    between atoms: _274  and  _275
REMARK  101  A    between atoms: _274  and  _277
REMARK  102  A    between atoms: _277  and  _278
REMARK  103  A    between atoms: _281  and  _283
REMARK  104  A    between atoms: _283  and  _284
REMARK  105  A    between atoms: _283  and  _286
REMARK  106  A    between atoms: _286  and  _287
REMARK  107  A    between atoms: _291  and  _292
REMARK  108  A    between atoms: _298  and  _299
REMARK  109  A    between atoms: _304  and  _306
REMARK  110  A    between atoms: _306  and  _307
REMARK  111  A    between atoms: _306  and  _309
REMARK  112  A    between atoms: _309  and  _310
REMARK  113  A    between atoms: _313  and  _315
REMARK  114  A    between atoms: _315  and  _316
REMARK  115  A    between atoms: _315  and  _318
REMARK  116  A    between atoms: _318  and  _319
REMARK  117  A    between atoms: _322  and  _324
REMARK  118  A    between atoms: _324  and  _325
REMARK  119  A    between atoms: _324  and  _327
REMARK  120  A    between atoms: _330  and  _332
REMARK  121  A    between atoms: _332  and  _333
REMARK  122  A    between atoms: _332  and  _335
REMARK  123  A    between atoms: _335  and  _336
REMARK  124  A    between atoms: _346  and  _348
REMARK  125  A    between atoms: _348  and  _349
REMARK  126  A    between atoms: _348  and  _351
REMARK  127  A    between atoms: _351  and  _352
REMARK  128  A    between atoms: _357  and  _359
REMARK  129  A    between atoms: _359  and  _360
REMARK  130  A    between atoms: _359  and  _362
REMARK  131  A    between atoms: _362  and  _363
REMARK  132  A    between atoms: _363  and  _364
REMARK  133  A    between atoms: _364  and  _365
REMARK                            x       y       z     vdW  Elec       q    Type
REMARK                         _______ _______ _______ _____ _____    ______ ____
ROOT
ATOM      1  C   ILE A   1       8.256   7.310  10.649  0.00  0.00    +0.238 C 
ATOM      2  N   GLN A   2       8.428   6.090  11.185  0.00  0.00    -0.298 N 
ATOM      3  H   GLN A   2       8.343   5.945  12.211  0.00  0.00    +0.150 HD
ATOM      4  O   ILE A   1       8.332   7.507   9.437  0.00  0.00    -0.274 OA
ENDROOT
BRANCH   1   5
ATOM      5  CA  ILE A   1       7.944   8.475  11.598  0.00  0.00    +0.145 C 
BRANCH   5   6
ATOM      6  N   ILE A   1       7.029   8.057  12.703  0.00  0.00    -0.238 NA
ATOM      7  H   ILE A   1       7.354   7.369  13.412  0.00  0.00    +0.142 HD
ENDBRANCH   5   6
BRANCH   5   8
ATOM      8  CB  ILE A   1       9.207   9.233  12.102  0.00  0.00    +0.025 C 
ATOM      9  CG2 ILE A   1      10.045   8.430  13.114  0.00  0.00    +0.002 C 
BRANCH   8  10
ATOM     10  CG1 ILE A   1      10.131   9.463  10.881  0.00  0.00    +0.002 C 
ATOM     11  CD1 ILE A   1      11.330  10.458  11.243  0.00  0.00    +0.000 C 
ENDBRANCH   8  10
ENDBRANCH   5   8
ENDBRANCH   1   5
BRANCH   2  12
ATOM     12  CA  GLN A   2       8.735   4.976  10.303  0.00  0.00    +0.137 C 
BRANCH  12  13
ATOM     13  C   GLN A   2       8.543   3.739  11.079  0.00  0.00    +0.227 C 
ATOM     14  O   GLN A   2       8.399   3.750  12.314  0.00  0.00    -0.286 OA
ENDBRANCH  12  13
BRANCH  12  15
ATOM     15  CB  GLN A   2      10.180   5.031   9.771  0.00  0.00    +0.037 C 
BRANCH  15  16
ATOM     16  CG  GLN A   2      11.246   5.065  10.967  0.00  0.00    +0.087 C 
BRANCH  16  17
ATOM     17  CD  GLN A   2      11.996   3.801  11.185  0.00  0.00    +0.219 C 
ATOM     18  NE2 GLN A   2      13.304   3.909  11.269  0.00  0.00    -0.329 N 
ATOM     19 HE21 GLN A   2      13.891   3.056  11.360  0.00  0.00    +0.145 HD
ATOM     20 HE22 GLN A   2      13.751   4.848  11.244  0.00  0.00    +0.145 HD
ATOM     21  OE1 GLN A   2      11.410   2.730  11.208  0.00  0.00    -0.275 OA
ENDBRANCH  16  17
ENDBRANCH  15  16
ENDBRANCH  12  15
ENDBRANCH   2  12
TORSDOF 9
REMARK  Name = ../refined-set-2016/4q7v/4q7v_pocket.pdb
REMARK  133 active torsions:
REMARK  status: ('A' for Active; 'I' for Inactive)
REMARK    1  A    between atoms: _1  and  _3
REMARK    2  A    between atoms: _3  and  _4
REMARK    3  A    between atoms: _3  and  _6
REMARK    4  A    between atoms: _6  and  _7
REMARK    5  A    between atoms: _17  and  _19
REMARK    6  A    between atoms: _19  and  _20
REMARK    7  A    between atoms: _19  and  _22
REMARK    8  A    between atoms: _22  and  _23
REMARK    9  A    between atoms: _28  and  _29
REMARK   10  A    between atoms: _31  and  _33
REMARK   11  A    between atoms: _33  and  _34
REMARK   12  A    between atoms: _33  and  _36
REMARK   13  A    between atoms: _36  and  _37
REMARK   14  A    between atoms: _39  and  _41
REMARK   15  A    between atoms: _41  and  _42
REMARK   16  A    between atoms: _41  and  _44
REMARK   17  A    between atoms: _44  and  _45
REMARK   18  A    between atoms: _50  and  _52
REMARK   19  A    between atoms: _52  and  _53
REMARK   20  A    between atoms: _52  and  _55
REMARK   21  A    between atoms: _55  and  _56
REMARK   22  A    between atoms: _61  and  _63
REMARK   23  A    between atoms: _63  and  _64
REMARK   24  A    between atoms: _67  and  _69
REMARK   25  A    between atoms: _69  and  _70
REMARK   26  A    between atoms: _69  and  _72
REMARK   27  A    between atoms: _72  and  _73
REMARK   28  A    between atoms: _78  and  _80
REMARK   29  A    between atoms: _80  and  _81
REMARK   30  A    between atoms: _80  and  _83
REMARK   31  A    between atoms: _83  and  _84
REMARK   32  A    between atoms: _87  and  _89
REMARK   33  A    between atoms: _89  and  _90
REMARK   34  A    between atoms: _89  and  _92
REMARK   35  A    between atoms: _92  and  _93
REMARK   36  A    between atoms: _93  and  _94
REMARK   37  A    between atoms: _99  and  _101
REMARK   38  A    between atoms: _112  and  _115
REMARK   39  A    between atoms: _115  and  _116
REMARK   40  A    between atoms: _124  and  _125
REMARK   41  A    between atoms: _133  and  _135
REMARK   42  A    between atoms: _135  and  _136
REMARK   43  A    between atoms: _135  and  _138
REMARK   44  A    between atoms: _138  and  _139
REMARK   45  A    between atoms: _139  and  _140
REMARK   46  A    between atoms: _143  and  _145
REMARK   47  A    between atoms: _145  and  _146
REMARK   48  A    between atoms: _145  and  _148
REMARK   49  A    between atoms: _148  and  _149
REMARK   50  A    between atoms: _154  and  _156
REMARK   51  A    between atoms: _156  and  _157
REMARK   52  A    between atoms: _156  and  _159
REMARK   53  A    between atoms: _159  and  _160
REMARK   54  A    between atoms: _160  and  _161
REMARK   55  A    between atoms: _164  and  _166
REMARK   56  A    between atoms: _166  and  _167
REMARK   57  A    between atoms: _166  and  _169
REMARK   58  A    between atoms: _169  and  _170
REMARK   59  A    between atoms: _173  and  _175
REMARK   60  A    between atoms: _175  and  _176
REMARK   61  A    between atoms: _175  and  _178
REMARK   62  A    between atoms: _178  and  _179
REMARK   63  A    between atoms: _180  and  ZN_374
REMARK   64  A    between atoms: _184  and  _186
REMARK   65  A    between atoms: _186  and  _187
REMARK   66  A    between atoms: _186  and  _189
REMARK   67  A    between atoms: _189  and  _190
REMARK   68  A    between atoms: _193  and  _195
REMARK   69  A    between atoms: _195  and  _196
REMARK   70  A    between atoms: _195  and  _198
REMARK   71  A    between atoms: _201  and  _203
REMARK   72  A    between atoms: _203  and  _204
REMARK   73  A    between atoms: _203  and  _206
REMARK   74  A    between atoms: _206  and  _207
REMARK   75  A    between atoms: _212  and  _214
REMARK   76  A    between atoms: _214  and  _215
REMARK   77  A    between atoms: _214  and  _217
REMARK   78  A    between atoms: _217  and  _218
REMARK   79  A    between atoms: _224  and  _226
REMARK   80  A    between atoms: _226  and  _227
REMARK   81  A    between atoms: _226  and  _229
REMARK   82  A    between atoms: _232  and  _234
REMARK   83  A    between atoms: _234  and  _235
REMARK   84  A    between atoms: _234  and  _237
REMARK   85  A    between atoms: _237  and  _238
REMARK   86  A    between atoms: _241  and  _243
REMARK   87  A    between atoms: _243  and  _244
REMARK   88  A    between atoms: _247  and  _249
REMARK   89  A    between atoms: _249  and  _250
REMARK   90  A    between atoms: _249  and  _252
REMARK   91  A    between atoms: _255  and  _257
REMARK   92  A    between atoms: _257  and  _258
REMARK   93  A    between atoms: _257  and  _260
REMARK   94  A    between atoms: _260  and  _261
REMARK   95  A    between atoms: _263  and  _265
REMARK   96  A    between atoms: _265  and  _266
REMARK   97  A    between atoms: _265  and  _268
REMARK   98  A    between atoms: _268  and  _269
REMARK   99  A    between atoms: _272  and  _274
REMARK  100  A    between atoms: _274  and  _275
REMARK  101  A    between atoms: _274  and  _277
REMARK  102  A    between atoms: _277  and  _278
REMARK  103  A    between atoms: _281  and  _283
REMARK  104  A    between atoms: _283  and  _284
REMARK  105  A    between atoms: _283  and  _286
REMARK  106  A    between atoms: _286  and  _287
REMARK  107  A    between atoms: _291  and  _292
REMARK  108  A    between atoms: _298  and  _299
REMARK  109  A    between atoms: _304  and  _306
REMARK  110  A    between atoms: _306  and  _307
REMARK  111  A    between atoms: _306  and  _309
REMARK  112  A    between atoms: _309  and  _310
REMARK  113  A    between atoms: _313  and  _315
REMARK  114  A    between atoms: _315  and  _316
REMARK  115  A    between atoms: _315  and  _318
REMARK  116  A    between atoms: _318  and  _319
REMARK  117  A    between atoms: _322  and  _324
REMARK  118  A    between atoms: _324  and  _325
REMARK  119  A    between atoms: _324  and  _327
REMARK  120  A    between atoms: _330  and  _332
REMARK  121  A    between atoms: _332  and  _333
REMARK  122  A    between atoms: _332  and  _335
REMARK  123  A    between atoms: _335  and  _336
REMARK  124  A    between atoms: _346  and  _348
REMARK  125  A    between atoms: _348  and  _349
REMARK  126  A    between atoms: _348  and  _351
REMARK  127  A    between atoms: _351  and  _352
REMARK  128  A    between atoms: _357  and  _359
REMARK  129  A    between atoms: _359  and  _360
REMARK  130  A    between atoms: _359  and  _362
REMARK  131  A    between atoms: _362  and  _363
REMARK  132  A    between atoms: _363  and  _364
REMARK  133  A    between atoms: _364  and  _365
REMARK                            x       y       z     vdW  Elec       q    Type
REMARK                         _______ _______ _______ _____ _____    ______ ____
ROOT
ATOM      1  C   UNK A   3       9.299  -1.533  15.591  0.00  0.00    +0.000 C 
ENDROOT
BRANCH   1   2
ATOM      2  C   UNK A   3       8.651  -0.395  14.874  0.00  0.00    +0.000 C 
ATOM      3  N   LEU A   4       7.626   0.173  15.547  0.00  0.00    +0.000 N 
ATOM      4  H   LEU A   4       7.292  -0.274  16.424  0.00  0.00    +0.000 HD
ATOM      5  O   UNK A   3       9.056   0.005  13.753  0.00  0.00    +0.000 OA
BRANCH   3   6
ATOM      6  CA  LEU A   4       6.952   1.431  15.070  0.00  0.00    +0.000 C 
BRANCH   6   7
ATOM      7  C   LEU A   4       7.583   2.542  15.857  0.00  0.00    +0.000 C 
ATOM      8  O   LEU A   4       7.438   2.599  17.101  0.00  0.00    +0.000 OA
ATOM      9  N   VAL A   5       8.311   3.398  15.103  0.00  0.00    +0.000 N 
ATOM     10  H   VAL A   5       8.291   3.346  14.065  0.00  0.00    +0.000 HD
BRANCH   9  11
ATOM     11  CA  VAL A   5       9.153   4.430  15.811  0.00  0.00    +0.000 C 
BRANCH  11  12
ATOM     12  C   VAL A   5       8.434   5.782  15.811  0.00  0.00    +0.000 C 
ATOM     13  N   HIS A   6       8.334   6.412  17.004  0.00  0.00    +0.000 N 
ATOM     14  H   HIS A   6       8.752   5.959  17.842  0.00  0.00    +0.000 HD
ATOM     15  O   VAL A   5       7.973   6.230  14.747  0.00  0.00    +0.000 OA
BRANCH  13  16
ATOM     16  CA  HIS A   6       7.672   7.687  17.166  0.00  0.00    +0.000 C 
BRANCH  16  17
ATOM     17  C   HIS A   6       8.562   8.634  17.935  0.00  0.00    +0.000 C 
ATOM     18  O   HIS A   6       9.308   8.228  18.825  0.00  0.00    +0.000 OA
ENDBRANCH  16  17
BRANCH  16  19
ATOM     19  CB  HIS A   6       6.399   7.515  17.997  0.00  0.00    +0.000 C 
BRANCH  19  20
ATOM     20  CG  HIS A   6       5.503   6.373  17.575  0.00  0.00    +0.000 A 
ATOM     21  ND1 HIS A   6       5.830   5.043  17.839  0.00  0.00    +0.000 NA
ATOM     22  CE1 HIS A   6       4.848   4.249  17.416  0.00  0.00    +0.000 A 
ATOM     23  NE2 HIS A   6       3.895   5.008  16.880  0.00  0.00    +0.000 NA
ATOM     24  CD2 HIS A   6       4.264   6.338  16.984  0.00  0.00    +0.000 A 
ENDBRANCH  19  20
ENDBRANCH  16  19
ENDBRANCH  13  16
ENDBRANCH  11  12
BRANCH  11  25
ATOM     25  CB  VAL A   5      10.400   4.617  14.999  0.00  0.00    +0.000 C 
ATOM     26  CG2 VAL A   5      11.360   5.604  15.658  0.00  0.00    +0.000 C 
ATOM     27  CG1 VAL A   5      11.090   3.264  14.780  0.00  0.00    +0.000 C 
ENDBRANCH  11  25
ENDBRANCH   9  11
ENDBRANCH   6   7
BRANCH   6  28
ATOM     28  CB  LEU A   4       5.459   1.302  15.252  0.00  0.00    +0.000 C 
BRANCH  28  29
ATOM     29  CG  LEU A   4       4.821   0.234  14.347  0.00  0.00    +0.000 C 
ATOM     30  CD2 LEU A   4       3.934  -0.707  15.177  0.00  0.00    +0.000 C 
ATOM     31  CD1 LEU A   4       3.960   0.934  13.297  0.00  0.00    +0.000 C 
ENDBRANCH  28  29
ENDBRANCH   6  28
ENDBRANCH   3   6
ENDBRANCH   1   2
BRANCH   1  32
ATOM     32  N   UNK A   3       9.049  -2.751  14.807  0.00  0.00    +0.000 N 
ATOM     33  C   LEU A   2       8.450  -3.835  15.292  0.00  0.00    +0.000 C 
ATOM     34  O   LEU A   2       8.002  -3.886  16.423  0.00  0.00    +0.000 OA
ATOM     35  H   UNK A   3       9.359  -2.766  13.814  0.00  0.00    +0.000 HD
BRANCH  33  36
ATOM     36  CA  LEU A   2       8.216  -5.007  14.296  0.00  0.00    +0.000 C 
BRANCH  36  37
ATOM     37  N   LEU A   2       8.558  -6.246  14.940  0.00  0.00    +0.000 N 
ATOM     38  H   LEU A   2       7.827  -6.735  15.496  0.00  0.00    +0.000 HD
ATOM     39  C   UNK A   1       9.756  -6.790  14.858  0.00  0.00    +0.000 C 
ATOM     40  O   UNK A   1      10.658  -6.401  14.129  0.00  0.00    +0.000 OA
BRANCH  39  41
ATOM     41  C   UNK A   1       9.887  -8.058  15.657  0.00  0.00    +0.000 C 
BRANCH  41  42
ATOM     42  N   UNK A   1      10.450  -9.065  14.740  0.00  0.00    +0.000 NA
ATOM     43  H   UNK A   1      11.071  -8.778  13.957  0.00  0.00    +0.000 HD
ENDBRANCH  41  42
BRANCH  41  44
ATOM     44  C   UNK A   1      10.918  -7.870  16.807  0.00  0.00    +0.000 C 
BRANCH  44  45
ATOM     45  C   UNK A   1      10.431  -6.900  17.884  0.00  0.00    +0.000 C 
BRANCH  45  46
ATOM     46  C   UNK A   1      11.308  -6.870  19.076  0.00  0.00    +0.000 C 
ATOM     47  O   UNK A   1      11.419  -5.798  19.706  0.00  0.00    +0.000 OA
ATOM     48  O   UNK A   1      11.917  -7.903  19.434  0.00  0.00    +0.000 OA
ENDBRANCH  45  46
ENDBRANCH  44  45
ENDBRANCH  41  44
ENDBRANCH  39  41
ENDBRANCH  36  37
BRANCH  36  49
ATOM     49  CB  LEU A   2       6.691  -5.045  13.948  0.00  0.00    +0.000 C 
BRANCH  49  50
ATOM     50  CG  LEU A   2       5.949  -3.710  13.602  0.00  0.00    +0.000 C 
ATOM     51  CD2 LEU A   2       4.478  -4.047  13.285  0.00  0.00    +0.000 C 
ATOM     52  CD1 LEU A   2       6.513  -3.120  12.319  0.00  0.00    +0.000 C 
ENDBRANCH  49  50
ENDBRANCH  36  49
ENDBRANCH  33  36
ENDBRANCH   1  32
BRANCH   1  53
ATOM     53  C   UNK A   3      10.837  -1.297  15.615  0.00  0.00    +0.000 C 
BRANCH  53  58
ATOM     54  N   UNK A   3      12.875  -2.480  16.535  0.00  0.00    +0.000 N 
ATOM     55  C   UNK A   3      13.188  -3.411  17.421  0.00  0.00    +0.000 A 
ATOM     56  N   UNK A   3      12.067  -3.844  17.974  0.00  0.00    +0.000 NA
ATOM     57  C   UNK A   3      11.000  -3.146  17.438  0.00  0.00    +0.000 A 
ATOM     58  C   UNK A   3      11.509  -2.285  16.526  0.00  0.00    +0.000 A 
BRANCH  54  72
ATOM     59  C   UNK A   1      10.791  -1.557  10.317  0.00  0.00    +0.000 C 
ATOM     60  C   UNK A   1      10.710  -2.820  11.120  0.00  0.00    +0.000 C 
ATOM     61  O   UNK A   1      10.055  -2.863  12.148  0.00  0.00    +0.000 OA
ATOM     62  N   LEU A   2      11.402  -3.828  10.614  0.00  0.00    +0.000 N 
ATOM     63  CA  LEU A   2      11.411  -5.073  11.335  0.00  0.00    +0.000 C 
ATOM     64  C   LEU A   2      12.857  -5.539  11.522  0.00  0.00    +0.000 C 
ATOM     65  N   UNK A   3      13.000  -6.473  12.448  0.00  0.00    +0.000 N 
ATOM     66  H   UNK A   3      12.207  -6.644  13.098  0.00  0.00    +0.000 HD
ATOM     67  C   UNK A   3      14.182  -7.261  12.606  0.00  0.00    +0.000 C 
ATOM     68  C   UNK A   3      14.815  -7.044  13.983  0.00  0.00    +0.000 C 
ATOM     69  C   UNK A   3      15.127  -5.622  14.285  0.00  0.00    +0.000 A 
ATOM     70  C   UNK A   3      14.327  -4.596  14.672  0.00  0.00    +0.000 A 
ATOM     71  N   UNK A   3      15.109  -3.481  14.741  0.00  0.00    +0.000 N 
ATOM     72 ZN   UNK A   3      14.427  -1.628  15.374  0.00  0.00    +0.000 Zn
ATOM     73  N   UNK A   1      13.648  -0.800  13.696  0.00  0.00    +0.000 N 
ATOM     74  C   UNK A   1      13.126   0.411  13.488  0.00  0.00    +0.000 A 
ATOM     75  N   UNK A   1      12.614   0.440  12.270  0.00  0.00    +0.000 NA
ATOM     76  C   UNK A   1      12.835  -0.767  11.644  0.00  0.00    +0.000 A 
ATOM     77  C   UNK A   1      13.449  -1.560  12.561  0.00  0.00    +0.000 A 
ATOM     78  C   UNK A   3      16.364  -3.819  14.475  0.00  0.00    +0.000 A 
ATOM     79  N   UNK A   3      16.390  -5.100  14.088  0.00  0.00    +0.000 NA
ATOM     80  O   LEU A   2      13.758  -5.114  10.822  0.00  0.00    +0.000 OA
ATOM     81  H   LEU A   2      11.924  -3.723   9.721  0.00  0.00    +0.000 HD
ATOM     82  C   UNK A   1      12.302  -1.054  10.283  0.00  0.00    +0.000 C 
BRANCH  59  83
ATOM     83  N   UNK A   1       9.848  -0.590  10.892  0.00  0.00    +0.000 NA
ATOM     84  H   UNK A   1       9.543  -0.715  11.878  0.00  0.00    +0.000 HD
ENDBRANCH  59  83
BRANCH  67  85
ATOM     85  C   UNK A   3      13.783  -8.733  12.490  0.00  0.00    +0.000 C 
ATOM     86  O   UNK A   3      12.741  -9.126  13.059  0.00  0.00    +0.000 OA
ENDBRANCH  67  85
BRANCH  63  87
ATOM     87  CB  LEU A   2      10.714  -6.210  10.524  0.00  0.00    +0.000 C 
BRANCH  87  88
ATOM     88  CG  LEU A   2       9.303  -5.931  10.128  0.00  0.00    +0.000 A 
ATOM     89  CD2 LEU A   2       8.242  -6.574  10.812  0.00  0.00    +0.000 A 
ATOM     90  CE2 LEU A   2       6.926  -6.369  10.448  0.00  0.00    +0.000 A 
ATOM     91  CZ  LEU A   2       6.632  -5.451   9.383  0.00  0.00    +0.000 A 
ATOM     92  CE1 LEU A   2       7.646  -4.841   8.669  0.00  0.00    +0.000 A 
ATOM     93  CD1 LEU A   2       8.993  -5.032   9.081  0.00  0.00    +0.000 A 
ENDBRANCH  87  88
ENDBRANCH  63  87
ENDBRANCH  54  72
ENDBRANCH  53  58
ENDBRANCH   1  53
TORSDOF 29
REMARK  Name = ../refined-set-2016/4q7v/4q7v_pocket.pdb
REMARK  133 active torsions:
REMARK  status: ('A' for Active; 'I' for Inactive)
REMARK    1  A    between atoms: _1  and  _3
REMARK    2  A    between atoms: _3  and  _4
REMARK    3  A    between atoms: _3  and  _6
REMARK    4  A    between atoms: _6  and  _7
REMARK    5  A    between atoms: _17  and  _19
REMARK    6  A    between atoms: _19  and  _20
REMARK    7  A    between atoms: _19  and  _22
REMARK    8  A    between atoms: _22  and  _23
REMARK    9  A    between atoms: _28  and  _29
REMARK   10  A    between atoms: _31  and  _33
REMARK   11  A    between atoms: _33  and  _34
REMARK   12  A    between atoms: _33  and  _36
REMARK   13  A    between atoms: _36  and  _37
REMARK   14  A    between atoms: _39  and  _41
REMARK   15  A    between atoms: _41  and  _42
REMARK   16  A    between atoms: _41  and  _44
REMARK   17  A    between atoms: _44  and  _45
REMARK   18  A    between atoms: _50  and  _52
REMARK   19  A    between atoms: _52  and  _53
REMARK   20  A    between atoms: _52  and  _55
REMARK   21  A    between atoms: _55  and  _56
REMARK   22  A    between atoms: _61  and  _63
REMARK   23  A    between atoms: _63  and  _64
REMARK   24  A    between atoms: _67  and  _69
REMARK   25  A    between atoms: _69  and  _70
REMARK   26  A    between atoms: _69  and  _72
REMARK   27  A    between atoms: _72  and  _73
REMARK   28  A    between atoms: _78  and  _80
REMARK   29  A    between atoms: _80  and  _81
REMARK   30  A    between atoms: _80  and  _83
REMARK   31  A    between atoms: _83  and  _84
REMARK   32  A    between atoms: _87  and  _89
REMARK   33  A    between atoms: _89  and  _90
REMARK   34  A    between atoms: _89  and  _92
REMARK   35  A    between atoms: _92  and  _93
REMARK   36  A    between atoms: _93  and  _94
REMARK   37  A    between atoms: _99  and  _101
REMARK   38  A    between atoms: _112  and  _115
REMARK   39  A    between atoms: _115  and  _116
REMARK   40  A    between atoms: _124  and  _125
REMARK   41  A    between atoms: _133  and  _135
REMARK   42  A    between atoms: _135  and  _136
REMARK   43  A    between atoms: _135  and  _138
REMARK   44  A    between atoms: _138  and  _139
REMARK   45  A    between atoms: _139  and  _140
REMARK   46  A    between atoms: _143  and  _145
REMARK   47  A    between atoms: _145  and  _146
REMARK   48  A    between atoms: _145  and  _148
REMARK   49  A    between atoms: _148  and  _149
REMARK   50  A    between atoms: _154  and  _156
REMARK   51  A    between atoms: _156  and  _157
REMARK   52  A    between atoms: _156  and  _159
REMARK   53  A    between atoms: _159  and  _160
REMARK   54  A    between atoms: _160  and  _161
REMARK   55  A    between atoms: _164  and  _166
REMARK   56  A    between atoms: _166  and  _167
REMARK   57  A    between atoms: _166  and  _169
REMARK   58  A    between atoms: _169  and  _170
REMARK   59  A    between atoms: _173  and  _175
REMARK   60  A    between atoms: _175  and  _176
REMARK   61  A    between atoms: _175  and  _178
REMARK   62  A    between atoms: _178  and  _179
REMARK   63  A    between atoms: _180  and  ZN_374
REMARK   64  A    between atoms: _184  and  _186
REMARK   65  A    between atoms: _186  and  _187
REMARK   66  A    between atoms: _186  and  _189
REMARK   67  A    between atoms: _189  and  _190
REMARK   68  A    between atoms: _193  and  _195
REMARK   69  A    between atoms: _195  and  _196
REMARK   70  A    between atoms: _195  and  _198
REMARK   71  A    between atoms: _201  and  _203
REMARK   72  A    between atoms: _203  and  _204
REMARK   73  A    between atoms: _203  and  _206
REMARK   74  A    between atoms: _206  and  _207
REMARK   75  A    between atoms: _212  and  _214
REMARK   76  A    between atoms: _214  and  _215
REMARK   77  A    between atoms: _214  and  _217
REMARK   78  A    between atoms: _217  and  _218
REMARK   79  A    between atoms: _224  and  _226
REMARK   80  A    between atoms: _226  and  _227
REMARK   81  A    between atoms: _226  and  _229
REMARK   82  A    between atoms: _232  and  _234
REMARK   83  A    between atoms: _234  and  _235
REMARK   84  A    between atoms: _234  and  _237
REMARK   85  A    between atoms: _237  and  _238
REMARK   86  A    between atoms: _241  and  _243
REMARK   87  A    between atoms: _243  and  _244
REMARK   88  A    between atoms: _247  and  _249
REMARK   89  A    between atoms: _249  and  _250
REMARK   90  A    between atoms: _249  and  _252
REMARK   91  A    between atoms: _255  and  _257
REMARK   92  A    between atoms: _257  and  _258
REMARK   93  A    between atoms: _257  and  _260
REMARK   94  A    between atoms: _260  and  _261
REMARK   95  A    between atoms: _263  and  _265
REMARK   96  A    between atoms: _265  and  _266
REMARK   97  A    between atoms: _265  and  _268
REMARK   98  A    between atoms: _268  and  _269
REMARK   99  A    between atoms: _272  and  _274
REMARK  100  A    between atoms: _274  and  _275
REMARK  101  A    between atoms: _274  and  _277
REMARK  102  A    between atoms: _277  and  _278
REMARK  103  A    between atoms: _281  and  _283
REMARK  104  A    between atoms: _283  and  _284
REMARK  105  A    between atoms: _283  and  _286
REMARK  106  A    between atoms: _286  and  _287
REMARK  107  A    between atoms: _291  and  _292
REMARK  108  A    between atoms: _298  and  _299
REMARK  109  A    between atoms: _304  and  _306
REMARK  110  A    between atoms: _306  and  _307
REMARK  111  A    between atoms: _306  and  _309
REMARK  112  A    between atoms: _309  and  _310
REMARK  113  A    between atoms: _313  and  _315
REMARK  114  A    between atoms: _315  and  _316
REMARK  115  A    between atoms: _315  and  _318
REMARK  116  A    between atoms: _318  and  _319
REMARK  117  A    between atoms: _322  and  _324
REMARK  118  A    between atoms: _324  and  _325
REMARK  119  A    between atoms: _324  and  _327
REMARK  120  A    between atoms: _330  and  _332
REMARK  121  A    between atoms: _332  and  _333
REMARK  122  A    between atoms: _332  and  _335
REMARK  123  A    between atoms: _335  and  _336
REMARK  124  A    between atoms: _346  and  _348
REMARK  125  A    between atoms: _348  and  _349
REMARK  126  A    between atoms: _348  and  _351
REMARK  127  A    between atoms: _351  and  _352
REMARK  128  A    between atoms: _357  and  _359
REMARK  129  A    between atoms: _359  and  _360
REMARK  130  A    between atoms: _359  and  _362
REMARK  131  A    between atoms: _362  and  _363
REMARK  132  A    between atoms: _363  and  _364
REMARK  133  A    between atoms: _364  and  _365
REMARK                            x       y       z     vdW  Elec       q    Type
REMARK                         _______ _______ _______ _____ _____    ______ ____
ROOT
ATOM      1  C   GLU A   1      15.010  -8.674  21.029  0.00  0.00    +0.238 C 
ATOM      2  O   GLU A   1      15.795  -9.321  21.787  0.00  0.00    -0.274 OA
ATOM      3  N   HIS A   2      13.813  -8.203  21.442  0.00  0.00    -0.298 N 
ATOM      4  H   HIS A   2      13.240  -7.579  20.838  0.00  0.00    +0.150 HD
ENDROOT
BRANCH   1   5
ATOM      5  CA  GLU A   1      15.425  -8.505  19.581  0.00  0.00    +0.145 C 
BRANCH   5   6
ATOM      6  N   GLU A   1      14.390  -9.221  18.743  0.00  0.00    -0.238 NA
ATOM      7  H   GLU A   1      13.538  -8.689  18.473  0.00  0.00    +0.142 HD
ENDBRANCH   5   6
BRANCH   5   8
ATOM      8  CB  GLU A   1      15.430  -7.043  19.132  0.00  0.00    +0.038 C 
BRANCH   8   9
ATOM      9  CG  GLU A   1      15.939  -7.005  17.653  0.00  0.00    +0.116 C 
BRANCH   9  10
ATOM     10  CD  GLU A   1      16.585  -5.726  17.333  0.00  0.00    +0.365 C 
ATOM     11  OE2 GLU A   1      15.932  -4.673  17.534  0.00  0.00    -0.246 OA
ATOM     12  OE1 GLU A   1      17.771  -5.769  16.902  0.00  0.00    -0.246 OA
ENDBRANCH   9  10
ENDBRANCH   8   9
ENDBRANCH   5   8
ENDBRANCH   1   5
BRANCH   3  13
ATOM     13  CA  HIS A   2      13.368  -8.592  22.731  0.00  0.00    +0.143 C 
BRANCH  13  14
ATOM     14  C   HIS A   2      13.085 -10.030  22.793  0.00  0.00    +0.227 C 
ATOM     15  O   HIS A   2      12.718 -10.632  21.768  0.00  0.00    -0.286 OA
ENDBRANCH  13  14
BRANCH  13  16
ATOM     16  CB  HIS A   2      12.153  -7.776  23.105  0.00  0.00    +0.075 C 
BRANCH  16  17
ATOM     17  CG  HIS A   2      12.511  -6.322  23.246  0.00  0.00    +0.082 A 
ATOM     18  CD2 HIS A   2      12.978  -5.646  24.326  0.00  0.00    +0.115 A 
ATOM     19  NE2 HIS A   2      13.200  -4.352  23.916  0.00  0.00    -0.221 NA
ATOM     20  CE1 HIS A   2      12.896  -4.243  22.635  0.00  0.00    +0.199 A 
ATOM     21  ND1 HIS A   2      12.433  -5.418  22.209  0.00  0.00    -0.227 NA
ENDBRANCH  16  17
ENDBRANCH  13  16
ENDBRANCH   3  13
TORSDOF 9
REMARK  Name = ../refined-set-2016/4q7v/4q7v_pocket.pdb
REMARK  133 active torsions:
REMARK  status: ('A' for Active; 'I' for Inactive)
REMARK    1  A    between atoms: _1  and  _3
REMARK    2  A    between atoms: _3  and  _4
REMARK    3  A    between atoms: _3  and  _6
REMARK    4  A    between atoms: _6  and  _7
REMARK    5  A    between atoms: _17  and  _19
REMARK    6  A    between atoms: _19  and  _20
REMARK    7  A    between atoms: _19  and  _22
REMARK    8  A    between atoms: _22  and  _23
REMARK    9  A    between atoms: _28  and  _29
REMARK   10  A    between atoms: _31  and  _33
REMARK   11  A    between atoms: _33  and  _34
REMARK   12  A    between atoms: _33  and  _36
REMARK   13  A    between atoms: _36  and  _37
REMARK   14  A    between atoms: _39  and  _41
REMARK   15  A    between atoms: _41  and  _42
REMARK   16  A    between atoms: _41  and  _44
REMARK   17  A    between atoms: _44  and  _45
REMARK   18  A    between atoms: _50  and  _52
REMARK   19  A    between atoms: _52  and  _53
REMARK   20  A    between atoms: _52  and  _55
REMARK   21  A    between atoms: _55  and  _56
REMARK   22  A    between atoms: _61  and  _63
REMARK   23  A    between atoms: _63  and  _64
REMARK   24  A    between atoms: _67  and  _69
REMARK   25  A    between atoms: _69  and  _70
REMARK   26  A    between atoms: _69  and  _72
REMARK   27  A    between atoms: _72  and  _73
REMARK   28  A    between atoms: _78  and  _80
REMARK   29  A    between atoms: _80  and  _81
REMARK   30  A    between atoms: _80  and  _83
REMARK   31  A    between atoms: _83  and  _84
REMARK   32  A    between atoms: _87  and  _89
REMARK   33  A    between atoms: _89  and  _90
REMARK   34  A    between atoms: _89  and  _92
REMARK   35  A    between atoms: _92  and  _93
REMARK   36  A    between atoms: _93  and  _94
REMARK   37  A    between atoms: _99  and  _101
REMARK   38  A    between atoms: _112  and  _115
REMARK   39  A    between atoms: _115  and  _116
REMARK   40  A    between atoms: _124  and  _125
REMARK   41  A    between atoms: _133  and  _135
REMARK   42  A    between atoms: _135  and  _136
REMARK   43  A    between atoms: _135  and  _138
REMARK   44  A    between atoms: _138  and  _139
REMARK   45  A    between atoms: _139  and  _140
REMARK   46  A    between atoms: _143  and  _145
REMARK   47  A    between atoms: _145  and  _146
REMARK   48  A    between atoms: _145  and  _148
REMARK   49  A    between atoms: _148  and  _149
REMARK   50  A    between atoms: _154  and  _156
REMARK   51  A    between atoms: _156  and  _157
REMARK   52  A    between atoms: _156  and  _159
REMARK   53  A    between atoms: _159  and  _160
REMARK   54  A    between atoms: _160  and  _161
REMARK   55  A    between atoms: _164  and  _166
REMARK   56  A    between atoms: _166  and  _167
REMARK   57  A    between atoms: _166  and  _169
REMARK   58  A    between atoms: _169  and  _170
REMARK   59  A    between atoms: _173  and  _175
REMARK   60  A    between atoms: _175  and  _176
REMARK   61  A    between atoms: _175  and  _178
REMARK   62  A    between atoms: _178  and  _179
REMARK   63  A    between atoms: _180  and  ZN_374
REMARK   64  A    between atoms: _184  and  _186
REMARK   65  A    between atoms: _186  and  _187
REMARK   66  A    between atoms: _186  and  _189
REMARK   67  A    between atoms: _189  and  _190
REMARK   68  A    between atoms: _193  and  _195
REMARK   69  A    between atoms: _195  and  _196
REMARK   70  A    between atoms: _195  and  _198
REMARK   71  A    between atoms: _201  and  _203
REMARK   72  A    between atoms: _203  and  _204
REMARK   73  A    between atoms: _203  and  _206
REMARK   74  A    between atoms: _206  and  _207
REMARK   75  A    between atoms: _212  and  _214
REMARK   76  A    between atoms: _214  and  _215
REMARK   77  A    between atoms: _214  and  _217
REMARK   78  A    between atoms: _217  and  _218
REMARK   79  A    between atoms: _224  and  _226
REMARK   80  A    between atoms: _226  and  _227
REMARK   81  A    between atoms: _226  and  _229
REMARK   82  A    between atoms: _232  and  _234
REMARK   83  A    between atoms: _234  and  _235
REMARK   84  A    between atoms: _234  and  _237
REMARK   85  A    between atoms: _237  and  _238
REMARK   86  A    between atoms: _241  and  _243
REMARK   87  A    between atoms: _243  and  _244
REMARK   88  A    between atoms: _247  and  _249
REMARK   89  A    between atoms: _249  and  _250
REMARK   90  A    between atoms: _249  and  _252
REMARK   91  A    between atoms: _255  and  _257
REMARK   92  A    between atoms: _257  and  _258
REMARK   93  A    between atoms: _257  and  _260
REMARK   94  A    between atoms: _260  and  _261
REMARK   95  A    between atoms: _263  and  _265
REMARK   96  A    between atoms: _265  and  _266
REMARK   97  A    between atoms: _265  and  _268
REMARK   98  A    between atoms: _268  and  _269
REMARK   99  A    between atoms: _272  and  _274
REMARK  100  A    between atoms: _274  and  _275
REMARK  101  A    between atoms: _274  and  _277
REMARK  102  A    between atoms: _277  and  _278
REMARK  103  A    between atoms: _281  and  _283
REMARK  104  A    between atoms: _283  and  _284
REMARK  105  A    between atoms: _283  and  _286
REMARK  106  A    between atoms: _286  and  _287
REMARK  107  A    between atoms: _291  and  _292
REMARK  108  A    between atoms: _298  and  _299
REMARK  109  A    between atoms: _304  and  _306
REMARK  110  A    between atoms: _306  and  _307
REMARK  111  A    between atoms: _306  and  _309
REMARK  112  A    between atoms: _309  and  _310
REMARK  113  A    between atoms: _313  and  _315
REMARK  114  A    between atoms: _315  and  _316
REMARK  115  A    between atoms: _315  and  _318
REMARK  116  A    between atoms: _318  and  _319
REMARK  117  A    between atoms: _322  and  _324
REMARK  118  A    between atoms: _324  and  _325
REMARK  119  A    between atoms: _324  and  _327
REMARK  120  A    between atoms: _330  and  _332
REMARK  121  A    between atoms: _332  and  _333
REMARK  122  A    between atoms: _332  and  _335
REMARK  123  A    between atoms: _335  and  _336
REMARK  124  A    between atoms: _346  and  _348
REMARK  125  A    between atoms: _348  and  _349
REMARK  126  A    between atoms: _348  and  _351
REMARK  127  A    between atoms: _351  and  _352
REMARK  128  A    between atoms: _357  and  _359
REMARK  129  A    between atoms: _359  and  _360
REMARK  130  A    between atoms: _359  and  _362
REMARK  131  A    between atoms: _362  and  _363
REMARK  132  A    between atoms: _363  and  _364
REMARK  133  A    between atoms: _364  and  _365
REMARK                            x       y       z     vdW  Elec       q    Type
REMARK                         _______ _______ _______ _____ _____    ______ ____
ROOT
ATOM      1  CB  PHE A   1      13.124  12.450  13.820  0.00  0.00    +0.051 C 
ENDROOT
BRANCH   1   2
ATOM      2  CG  PHE A   1      13.817  11.178  14.076  0.00  0.00    -0.020 A 
ATOM      3  CD2 PHE A   1      13.170  10.138  14.765  0.00  0.00    -0.004 A 
ATOM      4  CE2 PHE A   1      13.853   8.964  15.021  0.00  0.00    -0.000 A 
ATOM      5  CZ  PHE A   1      15.129   8.829  14.645  0.00  0.00    -0.000 A 
ATOM      6  CE1 PHE A   1      15.813   9.827  13.983  0.00  0.00    -0.000 A 
ATOM      7  CD1 PHE A   1      15.151  11.025  13.710  0.00  0.00    -0.004 A 
ENDBRANCH   1   2
BRANCH   1   8
ATOM      8  CA  PHE A   1      13.213  13.498  14.975  0.00  0.00    +0.137 C 
BRANCH   8   9
ATOM      9  N   PHE A   1      12.485  14.706  14.628  0.00  0.00    -0.239 NA
ATOM     10  H   PHE A   1      12.118  14.804  13.660  0.00  0.00    +0.142 HD
ENDBRANCH   8   9
BRANCH   8  11
ATOM     11  C   PHE A   1      14.617  13.766  15.399  0.00  0.00    +0.224 C 
ATOM     12  O   PHE A   1      15.096  13.149  16.390  0.00  0.00    -0.287 OA
ENDBRANCH   8  11
ENDBRANCH   1   8
TORSDOF 4
REMARK  Name = ../refined-set-2016/4q7v/4q7v_pocket.pdb
REMARK  133 active torsions:
REMARK  status: ('A' for Active; 'I' for Inactive)
REMARK    1  A    between atoms: _1  and  _3
REMARK    2  A    between atoms: _3  and  _4
REMARK    3  A    between atoms: _3  and  _6
REMARK    4  A    between atoms: _6  and  _7
REMARK    5  A    between atoms: _17  and  _19
REMARK    6  A    between atoms: _19  and  _20
REMARK    7  A    between atoms: _19  and  _22
REMARK    8  A    between atoms: _22  and  _23
REMARK    9  A    between atoms: _28  and  _29
REMARK   10  A    between atoms: _31  and  _33
REMARK   11  A    between atoms: _33  and  _34
REMARK   12  A    between atoms: _33  and  _36
REMARK   13  A    between atoms: _36  and  _37
REMARK   14  A    between atoms: _39  and  _41
REMARK   15  A    between atoms: _41  and  _42
REMARK   16  A    between atoms: _41  and  _44
REMARK   17  A    between atoms: _44  and  _45
REMARK   18  A    between atoms: _50  and  _52
REMARK   19  A    between atoms: _52  and  _53
REMARK   20  A    between atoms: _52  and  _55
REMARK   21  A    between atoms: _55  and  _56
REMARK   22  A    between atoms: _61  and  _63
REMARK   23  A    between atoms: _63  and  _64
REMARK   24  A    between atoms: _67  and  _69
REMARK   25  A    between atoms: _69  and  _70
REMARK   26  A    between atoms: _69  and  _72
REMARK   27  A    between atoms: _72  and  _73
REMARK   28  A    between atoms: _78  and  _80
REMARK   29  A    between atoms: _80  and  _81
REMARK   30  A    between atoms: _80  and  _83
REMARK   31  A    between atoms: _83  and  _84
REMARK   32  A    between atoms: _87  and  _89
REMARK   33  A    between atoms: _89  and  _90
REMARK   34  A    between atoms: _89  and  _92
REMARK   35  A    between atoms: _92  and  _93
REMARK   36  A    between atoms: _93  and  _94
REMARK   37  A    between atoms: _99  and  _101
REMARK   38  A    between atoms: _112  and  _115
REMARK   39  A    between atoms: _115  and  _116
REMARK   40  A    between atoms: _124  and  _125
REMARK   41  A    between atoms: _133  and  _135
REMARK   42  A    between atoms: _135  and  _136
REMARK   43  A    between atoms: _135  and  _138
REMARK   44  A    between atoms: _138  and  _139
REMARK   45  A    between atoms: _139  and  _140
REMARK   46  A    between atoms: _143  and  _145
REMARK   47  A    between atoms: _145  and  _146
REMARK   48  A    between atoms: _145  and  _148
REMARK   49  A    between atoms: _148  and  _149
REMARK   50  A    between atoms: _154  and  _156
REMARK   51  A    between atoms: _156  and  _157
REMARK   52  A    between atoms: _156  and  _159
REMARK   53  A    between atoms: _159  and  _160
REMARK   54  A    between atoms: _160  and  _161
REMARK   55  A    between atoms: _164  and  _166
REMARK   56  A    between atoms: _166  and  _167
REMARK   57  A    between atoms: _166  and  _169
REMARK   58  A    between atoms: _169  and  _170
REMARK   59  A    between atoms: _173  and  _175
REMARK   60  A    between atoms: _175  and  _176
REMARK   61  A    between atoms: _175  and  _178
REMARK   62  A    between atoms: _178  and  _179
REMARK   63  A    between atoms: _180  and  ZN_374
REMARK   64  A    between atoms: _184  and  _186
REMARK   65  A    between atoms: _186  and  _187
REMARK   66  A    between atoms: _186  and  _189
REMARK   67  A    between atoms: _189  and  _190
REMARK   68  A    between atoms: _193  and  _195
REMARK   69  A    between atoms: _195  and  _196
REMARK   70  A    between atoms: _195  and  _198
REMARK   71  A    between atoms: _201  and  _203
REMARK   72  A    between atoms: _203  and  _204
REMARK   73  A    between atoms: _203  and  _206
REMARK   74  A    between atoms: _206  and  _207
REMARK   75  A    between atoms: _212  and  _214
REMARK   76  A    between atoms: _214  and  _215
REMARK   77  A    between atoms: _214  and  _217
REMARK   78  A    between atoms: _217  and  _218
REMARK   79  A    between atoms: _224  and  _226
REMARK   80  A    between atoms: _226  and  _227
REMARK   81  A    between atoms: _226  and  _229
REMARK   82  A    between atoms: _232  and  _234
REMARK   83  A    between atoms: _234  and  _235
REMARK   84  A    between atoms: _234  and  _237
REMARK   85  A    between atoms: _237  and  _238
REMARK   86  A    between atoms: _241  and  _243
REMARK   87  A    between atoms: _243  and  _244
REMARK   88  A    between atoms: _247  and  _249
REMARK   89  A    between atoms: _249  and  _250
REMARK   90  A    between atoms: _249  and  _252
REMARK   91  A    between atoms: _255  and  _257
REMARK   92  A    between atoms: _257  and  _258
REMARK   93  A    between atoms: _257  and  _260
REMARK   94  A    between atoms: _260  and  _261
REMARK   95  A    between atoms: _263  and  _265
REMARK   96  A    between atoms: _265  and  _266
REMARK   97  A    between atoms: _265  and  _268
REMARK   98  A    between atoms: _268  and  _269
REMARK   99  A    between atoms: _272  and  _274
REMARK  100  A    between atoms: _274  and  _275
REMARK  101  A    between atoms: _274  and  _277
REMARK  102  A    between atoms: _277  and  _278
REMARK  103  A    between atoms: _281  and  _283
REMARK  104  A    between atoms: _283  and  _284
REMARK  105  A    between atoms: _283  and  _286
REMARK  106  A    between atoms: _286  and  _287
REMARK  107  A    between atoms: _291  and  _292
REMARK  108  A    between atoms: _298  and  _299
REMARK  109  A    between atoms: _304  and  _306
REMARK  110  A    between atoms: _306  and  _307
REMARK  111  A    between atoms: _306  and  _309
REMARK  112  A    between atoms: _309  and  _310
REMARK  113  A    between atoms: _313  and  _315
REMARK  114  A    between atoms: _315  and  _316
REMARK  115  A    between atoms: _315  and  _318
REMARK  116  A    between atoms: _318  and  _319
REMARK  117  A    between atoms: _322  and  _324
REMARK  118  A    between atoms: _324  and  _325
REMARK  119  A    between atoms: _324  and  _327
REMARK  120  A    between atoms: _330  and  _332
REMARK  121  A    between atoms: _332  and  _333
REMARK  122  A    between atoms: _332  and  _335
REMARK  123  A    between atoms: _335  and  _336
REMARK  124  A    between atoms: _346  and  _348
REMARK  125  A    between atoms: _348  and  _349
REMARK  126  A    between atoms: _348  and  _351
REMARK  127  A    between atoms: _351  and  _352
REMARK  128  A    between atoms: _357  and  _359
REMARK  129  A    between atoms: _359  and  _360
REMARK  130  A    between atoms: _359  and  _362
REMARK  131  A    between atoms: _362  and  _363
REMARK  132  A    between atoms: _363  and  _364
REMARK  133  A    between atoms: _364  and  _365
REMARK                            x       y       z     vdW  Elec       q    Type
REMARK                         _______ _______ _______ _____ _____    ______ ____
ROOT
ATOM      1  CA  VAL A   1      17.209  11.751  19.548  0.00  0.00    +0.133 C 
ENDROOT
BRANCH   1   2
ATOM      2  CB  VAL A   1      17.673  10.845  18.403  0.00  0.00    +0.023 C 
ATOM      3  CG2 VAL A   1      16.377  10.217  17.678  0.00  0.00    +0.002 C 
ATOM      4  CG1 VAL A   1      18.452  11.678  17.328  0.00  0.00    +0.002 C 
ENDBRANCH   1   2
BRANCH   1   5
ATOM      5  N   VAL A   1      16.135  12.768  19.150  0.00  0.00    -0.239 NA
ATOM      6  H   VAL A   1      16.041  13.101  18.169  0.00  0.00    +0.142 HD
ENDBRANCH   1   5
BRANCH   1   7
ATOM      7  C   VAL A   1      18.390  12.342  20.307  0.00  0.00    +0.224 C 
ATOM      8  O   VAL A   1      19.340  11.606  20.615  0.00  0.00    -0.287 OA
ENDBRANCH   1   7
TORSDOF 3
REMARK  Name = ../refined-set-2016/4q7v/4q7v_pocket.pdb
REMARK  133 active torsions:
REMARK  status: ('A' for Active; 'I' for Inactive)
REMARK    1  A    between atoms: _1  and  _3
REMARK    2  A    between atoms: _3  and  _4
REMARK    3  A    between atoms: _3  and  _6
REMARK    4  A    between atoms: _6  and  _7
REMARK    5  A    between atoms: _17  and  _19
REMARK    6  A    between atoms: _19  and  _20
REMARK    7  A    between atoms: _19  and  _22
REMARK    8  A    between atoms: _22  and  _23
REMARK    9  A    between atoms: _28  and  _29
REMARK   10  A    between atoms: _31  and  _33
REMARK   11  A    between atoms: _33  and  _34
REMARK   12  A    between atoms: _33  and  _36
REMARK   13  A    between atoms: _36  and  _37
REMARK   14  A    between atoms: _39  and  _41
REMARK   15  A    between atoms: _41  and  _42
REMARK   16  A    between atoms: _41  and  _44
REMARK   17  A    between atoms: _44  and  _45
REMARK   18  A    between atoms: _50  and  _52
REMARK   19  A    between atoms: _52  and  _53
REMARK   20  A    between atoms: _52  and  _55
REMARK   21  A    between atoms: _55  and  _56
REMARK   22  A    between atoms: _61  and  _63
REMARK   23  A    between atoms: _63  and  _64
REMARK   24  A    between atoms: _67  and  _69
REMARK   25  A    between atoms: _69  and  _70
REMARK   26  A    between atoms: _69  and  _72
REMARK   27  A    between atoms: _72  and  _73
REMARK   28  A    between atoms: _78  and  _80
REMARK   29  A    between atoms: _80  and  _81
REMARK   30  A    between atoms: _80  and  _83
REMARK   31  A    between atoms: _83  and  _84
REMARK   32  A    between atoms: _87  and  _89
REMARK   33  A    between atoms: _89  and  _90
REMARK   34  A    between atoms: _89  and  _92
REMARK   35  A    between atoms: _92  and  _93
REMARK   36  A    between atoms: _93  and  _94
REMARK   37  A    between atoms: _99  and  _101
REMARK   38  A    between atoms: _112  and  _115
REMARK   39  A    between atoms: _115  and  _116
REMARK   40  A    between atoms: _124  and  _125
REMARK   41  A    between atoms: _133  and  _135
REMARK   42  A    between atoms: _135  and  _136
REMARK   43  A    between atoms: _135  and  _138
REMARK   44  A    between atoms: _138  and  _139
REMARK   45  A    between atoms: _139  and  _140
REMARK   46  A    between atoms: _143  and  _145
REMARK   47  A    between atoms: _145  and  _146
REMARK   48  A    between atoms: _145  and  _148
REMARK   49  A    between atoms: _148  and  _149
REMARK   50  A    between atoms: _154  and  _156
REMARK   51  A    between atoms: _156  and  _157
REMARK   52  A    between atoms: _156  and  _159
REMARK   53  A    between atoms: _159  and  _160
REMARK   54  A    between atoms: _160  and  _161
REMARK   55  A    between atoms: _164  and  _166
REMARK   56  A    between atoms: _166  and  _167
REMARK   57  A    between atoms: _166  and  _169
REMARK   58  A    between atoms: _169  and  _170
REMARK   59  A    between atoms: _173  and  _175
REMARK   60  A    between atoms: _175  and  _176
REMARK   61  A    between atoms: _175  and  _178
REMARK   62  A    between atoms: _178  and  _179
REMARK   63  A    between atoms: _180  and  ZN_374
REMARK   64  A    between atoms: _184  and  _186
REMARK   65  A    between atoms: _186  and  _187
REMARK   66  A    between atoms: _186  and  _189
REMARK   67  A    between atoms: _189  and  _190
REMARK   68  A    between atoms: _193  and  _195
REMARK   69  A    between atoms: _195  and  _196
REMARK   70  A    between atoms: _195  and  _198
REMARK   71  A    between atoms: _201  and  _203
REMARK   72  A    between atoms: _203  and  _204
REMARK   73  A    between atoms: _203  and  _206
REMARK   74  A    between atoms: _206  and  _207
REMARK   75  A    between atoms: _212  and  _214
REMARK   76  A    between atoms: _214  and  _215
REMARK   77  A    between atoms: _214  and  _217
REMARK   78  A    between atoms: _217  and  _218
REMARK   79  A    between atoms: _224  and  _226
REMARK   80  A    between atoms: _226  and  _227
REMARK   81  A    between atoms: _226  and  _229
REMARK   82  A    between atoms: _232  and  _234
REMARK   83  A    between atoms: _234  and  _235
REMARK   84  A    between atoms: _234  and  _237
REMARK   85  A    between atoms: _237  and  _238
REMARK   86  A    between atoms: _241  and  _243
REMARK   87  A    between atoms: _243  and  _244
REMARK   88  A    between atoms: _247  and  _249
REMARK   89  A    between atoms: _249  and  _250
REMARK   90  A    between atoms: _249  and  _252
REMARK   91  A    between atoms: _255  and  _257
REMARK   92  A    between atoms: _257  and  _258
REMARK   93  A    between atoms: _257  and  _260
REMARK   94  A    between atoms: _260  and  _261
REMARK   95  A    between atoms: _263  and  _265
REMARK   96  A    between atoms: _265  and  _266
REMARK   97  A    between atoms: _265  and  _268
REMARK   98  A    between atoms: _268  and  _269
REMARK   99  A    between atoms: _272  and  _274
REMARK  100  A    between atoms: _274  and  _275
REMARK  101  A    between atoms: _274  and  _277
REMARK  102  A    between atoms: _277  and  _278
REMARK  103  A    between atoms: _281  and  _283
REMARK  104  A    between atoms: _283  and  _284
REMARK  105  A    between atoms: _283  and  _286
REMARK  106  A    between atoms: _286  and  _287
REMARK  107  A    between atoms: _291  and  _292
REMARK  108  A    between atoms: _298  and  _299
REMARK  109  A    between atoms: _304  and  _306
REMARK  110  A    between atoms: _306  and  _307
REMARK  111  A    between atoms: _306  and  _309
REMARK  112  A    between atoms: _309  and  _310
REMARK  113  A    between atoms: _313  and  _315
REMARK  114  A    between atoms: _315  and  _316
REMARK  115  A    between atoms: _315  and  _318
REMARK  116  A    between atoms: _318  and  _319
REMARK  117  A    between atoms: _322  and  _324
REMARK  118  A    between atoms: _324  and  _325
REMARK  119  A    between atoms: _324  and  _327
REMARK  120  A    between atoms: _330  and  _332
REMARK  121  A    between atoms: _332  and  _333
REMARK  122  A    between atoms: _332  and  _335
REMARK  123  A    between atoms: _335  and  _336
REMARK  124  A    between atoms: _346  and  _348
REMARK  125  A    between atoms: _348  and  _349
REMARK  126  A    between atoms: _348  and  _351
REMARK  127  A    between atoms: _351  and  _352
REMARK  128  A    between atoms: _357  and  _359
REMARK  129  A    between atoms: _359  and  _360
REMARK  130  A    between atoms: _359  and  _362
REMARK  131  A    between atoms: _362  and  _363
REMARK  132  A    between atoms: _363  and  _364
REMARK  133  A    between atoms: _364  and  _365
REMARK                            x       y       z     vdW  Elec       q    Type
REMARK                         _______ _______ _______ _____ _____    ______ ____
ROOT
ATOM      1  CA  ALA A   2       8.745   5.803  21.859  0.00  0.00    +0.149 C 
ATOM      2  CB  ALA A   2       7.343   6.243  22.241  0.00  0.00    +0.031 C 
ENDROOT
BRANCH   1   5
ATOM      3  C   LEU A   1      10.473   7.454  22.024  0.00  0.00    +0.238 C 
ATOM      4  O   LEU A   1      10.726   7.189  23.229  0.00  0.00    -0.274 OA
ATOM      5  N   ALA A   2       9.478   6.930  21.314  0.00  0.00    -0.297 N 
ATOM      6  H   ALA A   2       9.229   7.322  20.383  0.00  0.00    +0.150 HD
BRANCH   3   7
ATOM      7  CA  LEU A   1      11.413   8.390  21.235  0.00  0.00    +0.145 C 
BRANCH   7   8
ATOM      8  N   LEU A   1      12.099   9.389  22.093  0.00  0.00    -0.238 NA
ATOM      9  H   LEU A   1      12.706   9.077  22.877  0.00  0.00    +0.142 HD
ENDBRANCH   7   8
BRANCH   7  10
ATOM     10  CB  LEU A   1      12.447   7.529  20.485  0.00  0.00    +0.026 C 
BRANCH  10  11
ATOM     11  CG  LEU A   1      13.339   8.301  19.556  0.00  0.00    +0.002 C 
ATOM     12  CD2 LEU A   1      14.225   7.222  18.823  0.00  0.00    +0.000 C 
ATOM     13  CD1 LEU A   1      12.629   9.122  18.512  0.00  0.00    +0.000 C 
ENDBRANCH  10  11
ENDBRANCH   7  10
ENDBRANCH   3   7
ENDBRANCH   1   5
BRANCH   1  14
ATOM     14  C   ALA A   2       8.674   4.766  20.761  0.00  0.00    +0.241 C 
ATOM     15  N   VAL A   3       9.097   3.547  21.072  0.00  0.00    -0.298 N 
ATOM     16  H   VAL A   3       9.453   3.329  22.024  0.00  0.00    +0.150 HD
ATOM     17  O   ALA A   2       8.332   5.138  19.623  0.00  0.00    -0.273 OA
BRANCH  15  18
ATOM     18  CA  VAL A   3       9.046   2.528  20.040  0.00  0.00    +0.137 C 
BRANCH  18  19
ATOM     19  CB  VAL A   3      10.390   1.937  19.785  0.00  0.00    +0.026 C 
ATOM     20  CG2 VAL A   3      11.274   3.021  19.267  0.00  0.00    +0.002 C 
ATOM     21  CG1 VAL A   3      10.263   0.874  18.592  0.00  0.00    +0.002 C 
ENDBRANCH  18  19
BRANCH  18  22
ATOM     22  C   VAL A   3       8.045   1.494  20.497  0.00  0.00    +0.227 C 
ATOM     23  O   VAL A   3       8.153   0.998  21.602  0.00  0.00    -0.286 OA
ENDBRANCH  18  22
ENDBRANCH  15  18
ENDBRANCH   1  14
TORSDOF 9
REMARK  Name = ../refined-set-2016/4q7v/4q7v_pocket.pdb
REMARK  133 active torsions:
REMARK  status: ('A' for Active; 'I' for Inactive)
REMARK    1  A    between atoms: _1  and  _3
REMARK    2  A    between atoms: _3  and  _4
REMARK    3  A    between atoms: _3  and  _6
REMARK    4  A    between atoms: _6  and  _7
REMARK    5  A    between atoms: _17  and  _19
REMARK    6  A    between atoms: _19  and  _20
REMARK    7  A    between atoms: _19  and  _22
REMARK    8  A    between atoms: _22  and  _23
REMARK    9  A    between atoms: _28  and  _29
REMARK   10  A    between atoms: _31  and  _33
REMARK   11  A    between atoms: _33  and  _34
REMARK   12  A    between atoms: _33  and  _36
REMARK   13  A    between atoms: _36  and  _37
REMARK   14  A    between atoms: _39  and  _41
REMARK   15  A    between atoms: _41  and  _42
REMARK   16  A    between atoms: _41  and  _44
REMARK   17  A    between atoms: _44  and  _45
REMARK   18  A    between atoms: _50  and  _52
REMARK   19  A    between atoms: _52  and  _53
REMARK   20  A    between atoms: _52  and  _55
REMARK   21  A    between atoms: _55  and  _56
REMARK   22  A    between atoms: _61  and  _63
REMARK   23  A    between atoms: _63  and  _64
REMARK   24  A    between atoms: _67  and  _69
REMARK   25  A    between atoms: _69  and  _70
REMARK   26  A    between atoms: _69  and  _72
REMARK   27  A    between atoms: _72  and  _73
REMARK   28  A    between atoms: _78  and  _80
REMARK   29  A    between atoms: _80  and  _81
REMARK   30  A    between atoms: _80  and  _83
REMARK   31  A    between atoms: _83  and  _84
REMARK   32  A    between atoms: _87  and  _89
REMARK   33  A    between atoms: _89  and  _90
REMARK   34  A    between atoms: _89  and  _92
REMARK   35  A    between atoms: _92  and  _93
REMARK   36  A    between atoms: _93  and  _94
REMARK   37  A    between atoms: _99  and  _101
REMARK   38  A    between atoms: _112  and  _115
REMARK   39  A    between atoms: _115  and  _116
REMARK   40  A    between atoms: _124  and  _125
REMARK   41  A    between atoms: _133  and  _135
REMARK   42  A    between atoms: _135  and  _136
REMARK   43  A    between atoms: _135  and  _138
REMARK   44  A    between atoms: _138  and  _139
REMARK   45  A    between atoms: _139  and  _140
REMARK   46  A    between atoms: _143  and  _145
REMARK   47  A    between atoms: _145  and  _146
REMARK   48  A    between atoms: _145  and  _148
REMARK   49  A    between atoms: _148  and  _149
REMARK   50  A    between atoms: _154  and  _156
REMARK   51  A    between atoms: _156  and  _157
REMARK   52  A    between atoms: _156  and  _159
REMARK   53  A    between atoms: _159  and  _160
REMARK   54  A    between atoms: _160  and  _161
REMARK   55  A    between atoms: _164  and  _166
REMARK   56  A    between atoms: _166  and  _167
REMARK   57  A    between atoms: _166  and  _169
REMARK   58  A    between atoms: _169  and  _170
REMARK   59  A    between atoms: _173  and  _175
REMARK   60  A    between atoms: _175  and  _176
REMARK   61  A    between atoms: _175  and  _178
REMARK   62  A    between atoms: _178  and  _179
REMARK   63  A    between atoms: _180  and  ZN_374
REMARK   64  A    between atoms: _184  and  _186
REMARK   65  A    between atoms: _186  and  _187
REMARK   66  A    between atoms: _186  and  _189
REMARK   67  A    between atoms: _189  and  _190
REMARK   68  A    between atoms: _193  and  _195
REMARK   69  A    between atoms: _195  and  _196
REMARK   70  A    between atoms: _195  and  _198
REMARK   71  A    between atoms: _201  and  _203
REMARK   72  A    between atoms: _203  and  _204
REMARK   73  A    between atoms: _203  and  _206
REMARK   74  A    between atoms: _206  and  _207
REMARK   75  A    between atoms: _212  and  _214
REMARK   76  A    between atoms: _214  and  _215
REMARK   77  A    between atoms: _214  and  _217
REMARK   78  A    between atoms: _217  and  _218
REMARK   79  A    between atoms: _224  and  _226
REMARK   80  A    between atoms: _226  and  _227
REMARK   81  A    between atoms: _226  and  _229
REMARK   82  A    between atoms: _232  and  _234
REMARK   83  A    between atoms: _234  and  _235
REMARK   84  A    between atoms: _234  and  _237
REMARK   85  A    between atoms: _237  and  _238
REMARK   86  A    between atoms: _241  and  _243
REMARK   87  A    between atoms: _243  and  _244
REMARK   88  A    between atoms: _247  and  _249
REMARK   89  A    between atoms: _249  and  _250
REMARK   90  A    between atoms: _249  and  _252
REMARK   91  A    between atoms: _255  and  _257
REMARK   92  A    between atoms: _257  and  _258
REMARK   93  A    between atoms: _257  and  _260
REMARK   94  A    between atoms: _260  and  _261
REMARK   95  A    between atoms: _263  and  _265
REMARK   96  A    between atoms: _265  and  _266
REMARK   97  A    between atoms: _265  and  _268
REMARK   98  A    between atoms: _268  and  _269
REMARK   99  A    between atoms: _272  and  _274
REMARK  100  A    between atoms: _274  and  _275
REMARK  101  A    between atoms: _274  and  _277
REMARK  102  A    between atoms: _277  and  _278
REMARK  103  A    between atoms: _281  and  _283
REMARK  104  A    between atoms: _283  and  _284
REMARK  105  A    between atoms: _283  and  _286
REMARK  106  A    between atoms: _286  and  _287
REMARK  107  A    between atoms: _291  and  _292
REMARK  108  A    between atoms: _298  and  _299
REMARK  109  A    between atoms: _304  and  _306
REMARK  110  A    between atoms: _306  and  _307
REMARK  111  A    between atoms: _306  and  _309
REMARK  112  A    between atoms: _309  and  _310
REMARK  113  A    between atoms: _313  and  _315
REMARK  114  A    between atoms: _315  and  _316
REMARK  115  A    between atoms: _315  and  _318
REMARK  116  A    between atoms: _318  and  _319
REMARK  117  A    between atoms: _322  and  _324
REMARK  118  A    between atoms: _324  and  _325
REMARK  119  A    between atoms: _324  and  _327
REMARK  120  A    between atoms: _330  and  _332
REMARK  121  A    between atoms: _332  and  _333
REMARK  122  A    between atoms: _332  and  _335
REMARK  123  A    between atoms: _335  and  _336
REMARK  124  A    between atoms: _346  and  _348
REMARK  125  A    between atoms: _348  and  _349
REMARK  126  A    between atoms: _348  and  _351
REMARK  127  A    between atoms: _351  and  _352
REMARK  128  A    between atoms: _357  and  _359
REMARK  129  A    between atoms: _359  and  _360
REMARK  130  A    between atoms: _359  and  _362
REMARK  131  A    between atoms: _362  and  _363
REMARK  132  A    between atoms: _363  and  _364
REMARK  133  A    between atoms: _364  and  _365
REMARK                            x       y       z     vdW  Elec       q    Type
REMARK                         _______ _______ _______ _____ _____    ______ ____
ROOT
ATOM      1  C   THR A   4      21.925   0.898  16.209  0.00  0.00    +0.246 C 
ATOM      2  O   THR A   4      21.442   1.915  16.757  0.00  0.00    -0.273 OA
ATOM      3  N   PRO A   5      23.217   0.862  15.779  0.00  0.00    -0.272 N 
ATOM      4  CA  PRO A   5      23.928   2.149  15.847  0.00  0.00    +0.152 C 
ATOM      5  CB  PRO A   5      25.188   1.838  15.030  0.00  0.00    +0.031 C 
ATOM      6  CG  PRO A   5      25.430   0.271  15.384  0.00  0.00    +0.024 C 
ATOM      7  CD  PRO A   5      24.025  -0.264  15.232  0.00  0.00    +0.094 C 
ENDROOT
BRANCH   4   8
ATOM      8  C   PRO A   5      23.106   3.319  15.264  0.00  0.00    +0.244 C 
ATOM      9  N   PRO A   6      23.169   4.497  15.895  0.00  0.00    -0.272 N 
ATOM     10  CA  PRO A   6      24.018   4.933  16.981  0.00  0.00    +0.152 C 
ATOM     11  CB  PRO A   6      24.054   6.455  16.788  0.00  0.00    +0.031 C 
ATOM     12  CG  PRO A   6      22.848   6.770  16.182  0.00  0.00    +0.024 C 
ATOM     13  CD  PRO A   6      22.436   5.654  15.339  0.00  0.00    +0.094 C 
ATOM     14  O   PRO A   5      22.507   3.184  14.159  0.00  0.00    -0.273 OA
BRANCH  10  15
ATOM     15  C   PRO A   6      23.643   4.537  18.419  0.00  0.00    +0.241 C 
ATOM     16  O   PRO A   6      24.286   4.982  19.380  0.00  0.00    -0.273 OA
ATOM     17  N   LEU A   7      22.688   3.604  18.554  0.00  0.00    -0.297 N 
ATOM     18  H   LEU A   7      22.150   3.296  17.719  0.00  0.00    +0.150 HD
BRANCH  17  19
ATOM     19  CA  LEU A   7      22.386   3.001  19.887  0.00  0.00    +0.149 C 
BRANCH  19  20
ATOM     20  C   LEU A   7      21.961   4.034  20.941  0.00  0.00    +0.241 C 
ATOM     21  O   LEU A   7      22.159   3.795  22.136  0.00  0.00    -0.273 OA
ATOM     22  N   LEU A   8      21.396   5.156  20.479  0.00  0.00    -0.298 N 
ATOM     23  H   LEU A   8      21.134   5.233  19.475  0.00  0.00    +0.150 HD
BRANCH  22  24
ATOM     24  CA  LEU A   8      21.144   6.292  21.405  0.00  0.00    +0.137 C 
BRANCH  24  25
ATOM     25  C   LEU A   8      20.077   5.892  22.462  0.00  0.00    +0.227 C 
ATOM     26  O   LEU A   8      19.078   5.198  22.160  0.00  0.00    -0.286 OA
ENDBRANCH  24  25
BRANCH  24  27
ATOM     27  CB  LEU A   8      20.640   7.476  20.569  0.00  0.00    +0.028 C 
BRANCH  27  28
ATOM     28  CG  LEU A   8      21.676   7.972  19.550  0.00  0.00    +0.002 C 
ATOM     29  CD2 LEU A   8      22.842   8.614  20.263  0.00  0.00    +0.000 C 
ATOM     30  CD1 LEU A   8      20.968   8.990  18.556  0.00  0.00    +0.000 C 
ENDBRANCH  27  28
ENDBRANCH  24  27
ENDBRANCH  22  24
ENDBRANCH  19  20
BRANCH  19  31
ATOM     31  CB  LEU A   7      23.552   2.123  20.438  0.00  0.00    +0.029 C 
BRANCH  31  32
ATOM     32  CG  LEU A   7      23.885   0.990  19.424  0.00  0.00    +0.002 C 
ATOM     33  CD2 LEU A   7      25.199   0.297  19.910  0.00  0.00    +0.000 C 
ATOM     34  CD1 LEU A   7      22.801  -0.094  19.281  0.00  0.00    +0.000 C 
ENDBRANCH  31  32
ENDBRANCH  19  31
ENDBRANCH  17  19
ENDBRANCH  10  15
ENDBRANCH   4   8
BRANCH   1  35
ATOM     35  CA  THR A   4      21.078  -0.322  15.928  0.00  0.00    +0.176 C 
BRANCH  35  38
ATOM     36  C   THR A   3      19.907  -1.454  17.773  0.00  0.00    +0.243 C 
ATOM     37  O   THR A   3      20.567  -2.480  17.601  0.00  0.00    -0.273 OA
ATOM     38  N   THR A   4      20.025  -0.402  16.976  0.00  0.00    -0.295 N 
ATOM     39  H   THR A   4      19.362   0.391  17.086  0.00  0.00    +0.150 HD
BRANCH  36  40
ATOM     40  CA  THR A   3      18.886  -1.387  18.950  0.00  0.00    +0.176 C 
BRANCH  40  43
ATOM     41  C   LEU A   2      18.555   0.886  19.670  0.00  0.00    +0.241 C 
ATOM     42  O   LEU A   2      19.623   0.736  20.362  0.00  0.00    -0.273 OA
ATOM     43  N   THR A   3      18.159  -0.097  18.890  0.00  0.00    -0.295 N 
ATOM     44  H   THR A   3      17.353   0.029  18.245  0.00  0.00    +0.150 HD
BRANCH  41  45
ATOM     45  CA  LEU A   2      17.838   2.231  19.607  0.00  0.00    +0.149 C 
BRANCH  45  48
ATOM     46  C   SER A   1      17.387   2.122  21.965  0.00  0.00    +0.241 C 
ATOM     47  O   SER A   1      16.632   1.125  21.838  0.00  0.00    -0.274 OA
ATOM     48  N   LEU A   2      17.929   2.806  20.930  0.00  0.00    -0.297 N 
ATOM     49  H   LEU A   2      18.399   3.721  21.083  0.00  0.00    +0.150 HD
BRANCH  46  50
ATOM     50  CA  SER A   1      17.804   2.596  23.361  0.00  0.00    +0.174 C 
BRANCH  50  51
ATOM     51  N   SER A   1      17.006   1.971  24.425  0.00  0.00    -0.236 NA
ATOM     52  H   SER A   1      16.742   0.969  24.332  0.00  0.00    +0.142 HD
ENDBRANCH  50  51
BRANCH  50  53
ATOM     53  CB  SER A   1      19.293   2.181  23.548  0.00  0.00    +0.163 C 
BRANCH  53  54
ATOM     54  OG  SER A   1      19.543   0.803  23.144  0.00  0.00    -0.380 OA
ATOM     55  H   SER A   1      19.313   0.694  22.187  0.00  0.00    +0.211 HD
ENDBRANCH  53  54
ENDBRANCH  50  53
ENDBRANCH  46  50
ENDBRANCH  45  48
BRANCH  45  56
ATOM     56  CB  LEU A   2      18.644   3.066  18.617  0.00  0.00    +0.029 C 
BRANCH  56  57
ATOM     57  CG  LEU A   2      18.329   4.571  18.528  0.00  0.00    +0.002 C 
ATOM     58  CD2 LEU A   2      16.893   4.965  18.440  0.00  0.00    +0.000 C 
ATOM     59  CD1 LEU A   2      19.058   5.240  17.292  0.00  0.00    +0.000 C 
ENDBRANCH  56  57
ENDBRANCH  45  56
ENDBRANCH  41  45
ENDBRANCH  40  43
BRANCH  40  60
ATOM     60  CB  THR A   3      17.906  -2.549  18.802  0.00  0.00    +0.137 C 
ATOM     61  CG2 THR A   3      16.858  -2.515  19.908  0.00  0.00    +0.034 C 
BRANCH  60  62
ATOM     62  OG1 THR A   3      17.250  -2.444  17.532  0.00  0.00    -0.382 OA
ATOM     63  HG1 THR A   3      16.612  -3.194  17.428  0.00  0.00    +0.210 HD
ENDBRANCH  60  62
ENDBRANCH  40  60
ENDBRANCH  36  40
ENDBRANCH  35  38
BRANCH  35  64
ATOM     64  CB  THR A   4      20.467  -0.164  14.560  0.00  0.00    +0.137 C 
ATOM     65  CG2 THR A   4      19.875  -1.428  14.132  0.00  0.00    +0.034 C 
BRANCH  64  66
ATOM     66  OG1 THR A   4      19.440   0.832  14.593  0.00  0.00    -0.382 OA
ATOM     67  HG1 THR A   4      19.829   1.697  14.878  0.00  0.00    +0.210 HD
ENDBRANCH  64  66
ENDBRANCH  35  64
ENDBRANCH   1  35
TORSDOF 26
REMARK  Name = ../refined-set-2016/4q7v/4q7v_pocket.pdb
REMARK  133 active torsions:
REMARK  status: ('A' for Active; 'I' for Inactive)
REMARK    1  A    between atoms: _1  and  _3
REMARK    2  A    between atoms: _3  and  _4
REMARK    3  A    between atoms: _3  and  _6
REMARK    4  A    between atoms: _6  and  _7
REMARK    5  A    between atoms: _17  and  _19
REMARK    6  A    between atoms: _19  and  _20
REMARK    7  A    between atoms: _19  and  _22
REMARK    8  A    between atoms: _22  and  _23
REMARK    9  A    between atoms: _28  and  _29
REMARK   10  A    between atoms: _31  and  _33
REMARK   11  A    between atoms: _33  and  _34
REMARK   12  A    between atoms: _33  and  _36
REMARK   13  A    between atoms: _36  and  _37
REMARK   14  A    between atoms: _39  and  _41
REMARK   15  A    between atoms: _41  and  _42
REMARK   16  A    between atoms: _41  and  _44
REMARK   17  A    between atoms: _44  and  _45
REMARK   18  A    between atoms: _50  and  _52
REMARK   19  A    between atoms: _52  and  _53
REMARK   20  A    between atoms: _52  and  _55
REMARK   21  A    between atoms: _55  and  _56
REMARK   22  A    between atoms: _61  and  _63
REMARK   23  A    between atoms: _63  and  _64
REMARK   24  A    between atoms: _67  and  _69
REMARK   25  A    between atoms: _69  and  _70
REMARK   26  A    between atoms: _69  and  _72
REMARK   27  A    between atoms: _72  and  _73
REMARK   28  A    between atoms: _78  and  _80
REMARK   29  A    between atoms: _80  and  _81
REMARK   30  A    between atoms: _80  and  _83
REMARK   31  A    between atoms: _83  and  _84
REMARK   32  A    between atoms: _87  and  _89
REMARK   33  A    between atoms: _89  and  _90
REMARK   34  A    between atoms: _89  and  _92
REMARK   35  A    between atoms: _92  and  _93
REMARK   36  A    between atoms: _93  and  _94
REMARK   37  A    between atoms: _99  and  _101
REMARK   38  A    between atoms: _112  and  _115
REMARK   39  A    between atoms: _115  and  _116
REMARK   40  A    between atoms: _124  and  _125
REMARK   41  A    between atoms: _133  and  _135
REMARK   42  A    between atoms: _135  and  _136
REMARK   43  A    between atoms: _135  and  _138
REMARK   44  A    between atoms: _138  and  _139
REMARK   45  A    between atoms: _139  and  _140
REMARK   46  A    between atoms: _143  and  _145
REMARK   47  A    between atoms: _145  and  _146
REMARK   48  A    between atoms: _145  and  _148
REMARK   49  A    between atoms: _148  and  _149
REMARK   50  A    between atoms: _154  and  _156
REMARK   51  A    between atoms: _156  and  _157
REMARK   52  A    between atoms: _156  and  _159
REMARK   53  A    between atoms: _159  and  _160
REMARK   54  A    between atoms: _160  and  _161
REMARK   55  A    between atoms: _164  and  _166
REMARK   56  A    between atoms: _166  and  _167
REMARK   57  A    between atoms: _166  and  _169
REMARK   58  A    between atoms: _169  and  _170
REMARK   59  A    between atoms: _173  and  _175
REMARK   60  A    between atoms: _175  and  _176
REMARK   61  A    between atoms: _175  and  _178
REMARK   62  A    between atoms: _178  and  _179
REMARK   63  A    between atoms: _180  and  ZN_374
REMARK   64  A    between atoms: _184  and  _186
REMARK   65  A    between atoms: _186  and  _187
REMARK   66  A    between atoms: _186  and  _189
REMARK   67  A    between atoms: _189  and  _190
REMARK   68  A    between atoms: _193  and  _195
REMARK   69  A    between atoms: _195  and  _196
REMARK   70  A    between atoms: _195  and  _198
REMARK   71  A    between atoms: _201  and  _203
REMARK   72  A    between atoms: _203  and  _204
REMARK   73  A    between atoms: _203  and  _206
REMARK   74  A    between atoms: _206  and  _207
REMARK   75  A    between atoms: _212  and  _214
REMARK   76  A    between atoms: _214  and  _215
REMARK   77  A    between atoms: _214  and  _217
REMARK   78  A    between atoms: _217  and  _218
REMARK   79  A    between atoms: _224  and  _226
REMARK   80  A    between atoms: _226  and  _227
REMARK   81  A    between atoms: _226  and  _229
REMARK   82  A    between atoms: _232  and  _234
REMARK   83  A    between atoms: _234  and  _235
REMARK   84  A    between atoms: _234  and  _237
REMARK   85  A    between atoms: _237  and  _238
REMARK   86  A    between atoms: _241  and  _243
REMARK   87  A    between atoms: _243  and  _244
REMARK   88  A    between atoms: _247  and  _249
REMARK   89  A    between atoms: _249  and  _250
REMARK   90  A    between atoms: _249  and  _252
REMARK   91  A    between atoms: _255  and  _257
REMARK   92  A    between atoms: _257  and  _258
REMARK   93  A    between atoms: _257  and  _260
REMARK   94  A    between atoms: _260  and  _261
REMARK   95  A    between atoms: _263  and  _265
REMARK   96  A    between atoms: _265  and  _266
REMARK   97  A    between atoms: _265  and  _268
REMARK   98  A    between atoms: _268  and  _269
REMARK   99  A    between atoms: _272  and  _274
REMARK  100  A    between atoms: _274  and  _275
REMARK  101  A    between atoms: _274  and  _277
REMARK  102  A    between atoms: _277  and  _278
REMARK  103  A    between atoms: _281  and  _283
REMARK  104  A    between atoms: _283  and  _284
REMARK  105  A    between atoms: _283  and  _286
REMARK  106  A    between atoms: _286  and  _287
REMARK  107  A    between atoms: _291  and  _292
REMARK  108  A    between atoms: _298  and  _299
REMARK  109  A    between atoms: _304  and  _306
REMARK  110  A    between atoms: _306  and  _307
REMARK  111  A    between atoms: _306  and  _309
REMARK  112  A    between atoms: _309  and  _310
REMARK  113  A    between atoms: _313  and  _315
REMARK  114  A    between atoms: _315  and  _316
REMARK  115  A    between atoms: _315  and  _318
REMARK  116  A    between atoms: _318  and  _319
REMARK  117  A    between atoms: _322  and  _324
REMARK  118  A    between atoms: _324  and  _325
REMARK  119  A    between atoms: _324  and  _327
REMARK  120  A    between atoms: _330  and  _332
REMARK  121  A    between atoms: _332  and  _333
REMARK  122  A    between atoms: _332  and  _335
REMARK  123  A    between atoms: _335  and  _336
REMARK  124  A    between atoms: _346  and  _348
REMARK  125  A    between atoms: _348  and  _349
REMARK  126  A    between atoms: _348  and  _351
REMARK  127  A    between atoms: _351  and  _352
REMARK  128  A    between atoms: _357  and  _359
REMARK  129  A    between atoms: _359  and  _360
REMARK  130  A    between atoms: _359  and  _362
REMARK  131  A    between atoms: _362  and  _363
REMARK  132  A    between atoms: _363  and  _364
REMARK  133  A    between atoms: _364  and  _365
REMARK                            x       y       z     vdW  Elec       q    Type
REMARK                         _______ _______ _______ _____ _____    ______ ____
ROOT
ATOM      1  CA  VAL A   1      13.571   5.214  23.831  0.00  0.00    +0.133 C 
ENDROOT
BRANCH   1   2
ATOM      2  CB  VAL A   1      13.880   3.944  23.045  0.00  0.00    +0.023 C 
ATOM      3  CG2 VAL A   1      12.535   3.233  22.615  0.00  0.00    +0.002 C 
ATOM      4  CG1 VAL A   1      14.695   4.331  21.730  0.00  0.00    +0.002 C 
ENDBRANCH   1   2
BRANCH   1   5
ATOM      5  N   VAL A   1      14.844   5.986  24.168  0.00  0.00    -0.239 NA
ATOM      6  H   VAL A   1      15.681   5.476  24.517  0.00  0.00    +0.142 HD
ENDBRANCH   1   5
BRANCH   1   7
ATOM      7  C   VAL A   1      12.786   4.793  25.033  0.00  0.00    +0.224 C 
ATOM      8  O   VAL A   1      13.304   4.066  25.895  0.00  0.00    -0.287 OA
ENDBRANCH   1   7
TORSDOF 3
REMARK  Name = ../refined-set-2016/4q7v/4q7v_pocket.pdb
REMARK  133 active torsions:
REMARK  status: ('A' for Active; 'I' for Inactive)
REMARK    1  A    between atoms: _1  and  _3
REMARK    2  A    between atoms: _3  and  _4
REMARK    3  A    between atoms: _3  and  _6
REMARK    4  A    between atoms: _6  and  _7
REMARK    5  A    between atoms: _17  and  _19
REMARK    6  A    between atoms: _19  and  _20
REMARK    7  A    between atoms: _19  and  _22
REMARK    8  A    between atoms: _22  and  _23
REMARK    9  A    between atoms: _28  and  _29
REMARK   10  A    between atoms: _31  and  _33
REMARK   11  A    between atoms: _33  and  _34
REMARK   12  A    between atoms: _33  and  _36
REMARK   13  A    between atoms: _36  and  _37
REMARK   14  A    between atoms: _39  and  _41
REMARK   15  A    between atoms: _41  and  _42
REMARK   16  A    between atoms: _41  and  _44
REMARK   17  A    between atoms: _44  and  _45
REMARK   18  A    between atoms: _50  and  _52
REMARK   19  A    between atoms: _52  and  _53
REMARK   20  A    between atoms: _52  and  _55
REMARK   21  A    between atoms: _55  and  _56
REMARK   22  A    between atoms: _61  and  _63
REMARK   23  A    between atoms: _63  and  _64
REMARK   24  A    between atoms: _67  and  _69
REMARK   25  A    between atoms: _69  and  _70
REMARK   26  A    between atoms: _69  and  _72
REMARK   27  A    between atoms: _72  and  _73
REMARK   28  A    between atoms: _78  and  _80
REMARK   29  A    between atoms: _80  and  _81
REMARK   30  A    between atoms: _80  and  _83
REMARK   31  A    between atoms: _83  and  _84
REMARK   32  A    between atoms: _87  and  _89
REMARK   33  A    between atoms: _89  and  _90
REMARK   34  A    between atoms: _89  and  _92
REMARK   35  A    between atoms: _92  and  _93
REMARK   36  A    between atoms: _93  and  _94
REMARK   37  A    between atoms: _99  and  _101
REMARK   38  A    between atoms: _112  and  _115
REMARK   39  A    between atoms: _115  and  _116
REMARK   40  A    between atoms: _124  and  _125
REMARK   41  A    between atoms: _133  and  _135
REMARK   42  A    between atoms: _135  and  _136
REMARK   43  A    between atoms: _135  and  _138
REMARK   44  A    between atoms: _138  and  _139
REMARK   45  A    between atoms: _139  and  _140
REMARK   46  A    between atoms: _143  and  _145
REMARK   47  A    between atoms: _145  and  _146
REMARK   48  A    between atoms: _145  and  _148
REMARK   49  A    between atoms: _148  and  _149
REMARK   50  A    between atoms: _154  and  _156
REMARK   51  A    between atoms: _156  and  _157
REMARK   52  A    between atoms: _156  and  _159
REMARK   53  A    between atoms: _159  and  _160
REMARK   54  A    between atoms: _160  and  _161
REMARK   55  A    between atoms: _164  and  _166
REMARK   56  A    between atoms: _166  and  _167
REMARK   57  A    between atoms: _166  and  _169
REMARK   58  A    between atoms: _169  and  _170
REMARK   59  A    between atoms: _173  and  _175
REMARK   60  A    between atoms: _175  and  _176
REMARK   61  A    between atoms: _175  and  _178
REMARK   62  A    between atoms: _178  and  _179
REMARK   63  A    between atoms: _180  and  ZN_374
REMARK   64  A    between atoms: _184  and  _186
REMARK   65  A    between atoms: _186  and  _187
REMARK   66  A    between atoms: _186  and  _189
REMARK   67  A    between atoms: _189  and  _190
REMARK   68  A    between atoms: _193  and  _195
REMARK   69  A    between atoms: _195  and  _196
REMARK   70  A    between atoms: _195  and  _198
REMARK   71  A    between atoms: _201  and  _203
REMARK   72  A    between atoms: _203  and  _204
REMARK   73  A    between atoms: _203  and  _206
REMARK   74  A    between atoms: _206  and  _207
REMARK   75  A    between atoms: _212  and  _214
REMARK   76  A    between atoms: _214  and  _215
REMARK   77  A    between atoms: _214  and  _217
REMARK   78  A    between atoms: _217  and  _218
REMARK   79  A    between atoms: _224  and  _226
REMARK   80  A    between atoms: _226  and  _227
REMARK   81  A    between atoms: _226  and  _229
REMARK   82  A    between atoms: _232  and  _234
REMARK   83  A    between atoms: _234  and  _235
REMARK   84  A    between atoms: _234  and  _237
REMARK   85  A    between atoms: _237  and  _238
REMARK   86  A    between atoms: _241  and  _243
REMARK   87  A    between atoms: _243  and  _244
REMARK   88  A    between atoms: _247  and  _249
REMARK   89  A    between atoms: _249  and  _250
REMARK   90  A    between atoms: _249  and  _252
REMARK   91  A    between atoms: _255  and  _257
REMARK   92  A    between atoms: _257  and  _258
REMARK   93  A    between atoms: _257  and  _260
REMARK   94  A    between atoms: _260  and  _261
REMARK   95  A    between atoms: _263  and  _265
REMARK   96  A    between atoms: _265  and  _266
REMARK   97  A    between atoms: _265  and  _268
REMARK   98  A    between atoms: _268  and  _269
REMARK   99  A    between atoms: _272  and  _274
REMARK  100  A    between atoms: _274  and  _275
REMARK  101  A    between atoms: _274  and  _277
REMARK  102  A    between atoms: _277  and  _278
REMARK  103  A    between atoms: _281  and  _283
REMARK  104  A    between atoms: _283  and  _284
REMARK  105  A    between atoms: _283  and  _286
REMARK  106  A    between atoms: _286  and  _287
REMARK  107  A    between atoms: _291  and  _292
REMARK  108  A    between atoms: _298  and  _299
REMARK  109  A    between atoms: _304  and  _306
REMARK  110  A    between atoms: _306  and  _307
REMARK  111  A    between atoms: _306  and  _309
REMARK  112  A    between atoms: _309  and  _310
REMARK  113  A    between atoms: _313  and  _315
REMARK  114  A    between atoms: _315  and  _316
REMARK  115  A    between atoms: _315  and  _318
REMARK  116  A    between atoms: _318  and  _319
REMARK  117  A    between atoms: _322  and  _324
REMARK  118  A    between atoms: _324  and  _325
REMARK  119  A    between atoms: _324  and  _327
REMARK  120  A    between atoms: _330  and  _332
REMARK  121  A    between atoms: _332  and  _333
REMARK  122  A    between atoms: _332  and  _335
REMARK  123  A    between atoms: _335  and  _336
REMARK  124  A    between atoms: _346  and  _348
REMARK  125  A    between atoms: _348  and  _349
REMARK  126  A    between atoms: _348  and  _351
REMARK  127  A    between atoms: _351  and  _352
REMARK  128  A    between atoms: _357  and  _359
REMARK  129  A    between atoms: _359  and  _360
REMARK  130  A    between atoms: _359  and  _362
REMARK  131  A    between atoms: _362  and  _363
REMARK  132  A    between atoms: _363  and  _364
REMARK  133  A    between atoms: _364  and  _365
REMARK                            x       y       z     vdW  Elec       q    Type
REMARK                         _______ _______ _______ _____ _____    ______ ____
ROOT
ATOM      1  CG  TRP A   1      12.124  -0.193  24.145  0.00  0.00    -0.002 A 
ATOM      2  CD1 TRP A   1      13.369   0.356  24.322  0.00  0.00    +0.068 A 
ATOM      3  NE1 TRP A   1      14.110   0.303  23.130  0.00  0.00    -0.352 N 
ATOM      4  HE1 TRP A   1      15.073   0.671  22.993  0.00  0.00    +0.166 HD
ATOM      5  CE2 TRP A   1      13.337  -0.322  22.172  0.00  0.00    +0.056 A 
ATOM      6  CZ2 TRP A   1      13.619  -0.577  20.840  0.00  0.00    +0.017 A 
ATOM      7  CH2 TRP A   1      12.605  -1.219  20.096  0.00  0.00    +0.001 A 
ATOM      8  CZ3 TRP A   1      11.382  -1.515  20.673  0.00  0.00    +0.000 A 
ATOM      9  CE3 TRP A   1      11.112  -1.251  21.985  0.00  0.00    +0.001 A 
ATOM     10  CD2 TRP A   1      12.089  -0.645  22.768  0.00  0.00    +0.013 A 
ENDROOT
BRANCH   1  11
ATOM     11  CB  TRP A   1      10.959  -0.325  25.108  0.00  0.00    +0.053 C 
BRANCH  11  12
ATOM     12  CA  TRP A   1       9.998   0.906  24.829  0.00  0.00    +0.137 C 
BRANCH  12  13
ATOM     13  N   TRP A   1      10.439   2.069  25.594  0.00  0.00    -0.239 NA
ATOM     14  H   TRP A   1      11.013   1.952  26.453  0.00  0.00    +0.142 HD
ENDBRANCH  12  13
BRANCH  12  15
ATOM     15  C   TRP A   1       8.611   0.531  25.330  0.00  0.00    +0.224 C 
ATOM     16  O   TRP A   1       8.367   0.441  26.531  0.00  0.00    -0.287 OA
ENDBRANCH  12  15
ENDBRANCH  11  12
ENDBRANCH   1  11
TORSDOF 4
REMARK  Name = ../refined-set-2016/4q7v/4q7v_pocket.pdb
REMARK  133 active torsions:
REMARK  status: ('A' for Active; 'I' for Inactive)
REMARK    1  A    between atoms: _1  and  _3
REMARK    2  A    between atoms: _3  and  _4
REMARK    3  A    between atoms: _3  and  _6
REMARK    4  A    between atoms: _6  and  _7
REMARK    5  A    between atoms: _17  and  _19
REMARK    6  A    between atoms: _19  and  _20
REMARK    7  A    between atoms: _19  and  _22
REMARK    8  A    between atoms: _22  and  _23
REMARK    9  A    between atoms: _28  and  _29
REMARK   10  A    between atoms: _31  and  _33
REMARK   11  A    between atoms: _33  and  _34
REMARK   12  A    between atoms: _33  and  _36
REMARK   13  A    between atoms: _36  and  _37
REMARK   14  A    between atoms: _39  and  _41
REMARK   15  A    between atoms: _41  and  _42
REMARK   16  A    between atoms: _41  and  _44
REMARK   17  A    between atoms: _44  and  _45
REMARK   18  A    between atoms: _50  and  _52
REMARK   19  A    between atoms: _52  and  _53
REMARK   20  A    between atoms: _52  and  _55
REMARK   21  A    between atoms: _55  and  _56
REMARK   22  A    between atoms: _61  and  _63
REMARK   23  A    between atoms: _63  and  _64
REMARK   24  A    between atoms: _67  and  _69
REMARK   25  A    between atoms: _69  and  _70
REMARK   26  A    between atoms: _69  and  _72
REMARK   27  A    between atoms: _72  and  _73
REMARK   28  A    between atoms: _78  and  _80
REMARK   29  A    between atoms: _80  and  _81
REMARK   30  A    between atoms: _80  and  _83
REMARK   31  A    between atoms: _83  and  _84
REMARK   32  A    between atoms: _87  and  _89
REMARK   33  A    between atoms: _89  and  _90
REMARK   34  A    between atoms: _89  and  _92
REMARK   35  A    between atoms: _92  and  _93
REMARK   36  A    between atoms: _93  and  _94
REMARK   37  A    between atoms: _99  and  _101
REMARK   38  A    between atoms: _112  and  _115
REMARK   39  A    between atoms: _115  and  _116
REMARK   40  A    between atoms: _124  and  _125
REMARK   41  A    between atoms: _133  and  _135
REMARK   42  A    between atoms: _135  and  _136
REMARK   43  A    between atoms: _135  and  _138
REMARK   44  A    between atoms: _138  and  _139
REMARK   45  A    between atoms: _139  and  _140
REMARK   46  A    between atoms: _143  and  _145
REMARK   47  A    between atoms: _145  and  _146
REMARK   48  A    between atoms: _145  and  _148
REMARK   49  A    between atoms: _148  and  _149
REMARK   50  A    between atoms: _154  and  _156
REMARK   51  A    between atoms: _156  and  _157
REMARK   52  A    between atoms: _156  and  _159
REMARK   53  A    between atoms: _159  and  _160
REMARK   54  A    between atoms: _160  and  _161
REMARK   55  A    between atoms: _164  and  _166
REMARK   56  A    between atoms: _166  and  _167
REMARK   57  A    between atoms: _166  and  _169
REMARK   58  A    between atoms: _169  and  _170
REMARK   59  A    between atoms: _173  and  _175
REMARK   60  A    between atoms: _175  and  _176
REMARK   61  A    between atoms: _175  and  _178
REMARK   62  A    between atoms: _178  and  _179
REMARK   63  A    between atoms: _180  and  ZN_374
REMARK   64  A    between atoms: _184  and  _186
REMARK   65  A    between atoms: _186  and  _187
REMARK   66  A    between atoms: _186  and  _189
REMARK   67  A    between atoms: _189  and  _190
REMARK   68  A    between atoms: _193  and  _195
REMARK   69  A    between atoms: _195  and  _196
REMARK   70  A    between atoms: _195  and  _198
REMARK   71  A    between atoms: _201  and  _203
REMARK   72  A    between atoms: _203  and  _204
REMARK   73  A    between atoms: _203  and  _206
REMARK   74  A    between atoms: _206  and  _207
REMARK   75  A    between atoms: _212  and  _214
REMARK   76  A    between atoms: _214  and  _215
REMARK   77  A    between atoms: _214  and  _217
REMARK   78  A    between atoms: _217  and  _218
REMARK   79  A    between atoms: _224  and  _226
REMARK   80  A    between atoms: _226  and  _227
REMARK   81  A    between atoms: _226  and  _229
REMARK   82  A    between atoms: _232  and  _234
REMARK   83  A    between atoms: _234  and  _235
REMARK   84  A    between atoms: _234  and  _237
REMARK   85  A    between atoms: _237  and  _238
REMARK   86  A    between atoms: _241  and  _243
REMARK   87  A    between atoms: _243  and  _244
REMARK   88  A    between atoms: _247  and  _249
REMARK   89  A    between atoms: _249  and  _250
REMARK   90  A    between atoms: _249  and  _252
REMARK   91  A    between atoms: _255  and  _257
REMARK   92  A    between atoms: _257  and  _258
REMARK   93  A    between atoms: _257  and  _260
REMARK   94  A    between atoms: _260  and  _261
REMARK   95  A    between atoms: _263  and  _265
REMARK   96  A    between atoms: _265  and  _266
REMARK   97  A    between atoms: _265  and  _268
REMARK   98  A    between atoms: _268  and  _269
REMARK   99  A    between atoms: _272  and  _274
REMARK  100  A    between atoms: _274  and  _275
REMARK  101  A    between atoms: _274  and  _277
REMARK  102  A    between atoms: _277  and  _278
REMARK  103  A    between atoms: _281  and  _283
REMARK  104  A    between atoms: _283  and  _284
REMARK  105  A    between atoms: _283  and  _286
REMARK  106  A    between atoms: _286  and  _287
REMARK  107  A    between atoms: _291  and  _292
REMARK  108  A    between atoms: _298  and  _299
REMARK  109  A    between atoms: _304  and  _306
REMARK  110  A    between atoms: _306  and  _307
REMARK  111  A    between atoms: _306  and  _309
REMARK  112  A    between atoms: _309  and  _310
REMARK  113  A    between atoms: _313  and  _315
REMARK  114  A    between atoms: _315  and  _316
REMARK  115  A    between atoms: _315  and  _318
REMARK  116  A    between atoms: _318  and  _319
REMARK  117  A    between atoms: _322  and  _324
REMARK  118  A    between atoms: _324  and  _325
REMARK  119  A    between atoms: _324  and  _327
REMARK  120  A    between atoms: _330  and  _332
REMARK  121  A    between atoms: _332  and  _333
REMARK  122  A    between atoms: _332  and  _335
REMARK  123  A    between atoms: _335  and  _336
REMARK  124  A    between atoms: _346  and  _348
REMARK  125  A    between atoms: _348  and  _349
REMARK  126  A    between atoms: _348  and  _351
REMARK  127  A    between atoms: _351  and  _352
REMARK  128  A    between atoms: _357  and  _359
REMARK  129  A    between atoms: _359  and  _360
REMARK  130  A    between atoms: _359  and  _362
REMARK  131  A    between atoms: _362  and  _363
REMARK  132  A    between atoms: _363  and  _364
REMARK  133  A    between atoms: _364  and  _365
REMARK                            x       y       z     vdW  Elec       q    Type
REMARK                         _______ _______ _______ _____ _____    ______ ____
ROOT
ATOM      1  CB  ASN A   1      18.993  -7.403  10.458  0.00  0.00    +0.110 C 
ENDROOT
BRANCH   1   2
ATOM      2  CG  ASN A   1      17.496  -7.602  10.134  0.00  0.00    +0.221 C 
ATOM      3  OD1 ASN A   1      16.859  -8.470  10.717  0.00  0.00    -0.275 OA
ATOM      4  ND2 ASN A   1      16.913  -6.697   9.285  0.00  0.00    -0.329 N 
ATOM      5 HD21 ASN A   1      15.888  -6.730   9.114  0.00  0.00    +0.145 HD
ATOM      6 HD22 ASN A   1      17.496  -5.977   8.812  0.00  0.00    +0.145 HD
ENDBRANCH   1   2
BRANCH   1   7
ATOM      7  CA  ASN A   1      19.519  -8.316  11.574  0.00  0.00    +0.142 C 
BRANCH   7   8
ATOM      8  N   ASN A   1      19.203  -9.713  11.275  0.00  0.00    -0.239 NA
ATOM      9  H   ASN A   1      18.299  -9.962  10.826  0.00  0.00    +0.142 HD
ENDBRANCH   7   8
BRANCH   7  10
ATOM     10  C   ASN A   1      18.944  -7.930  12.967  0.00  0.00    +0.225 C 
ATOM     11  O   ASN A   1      18.302  -6.873  13.098  0.00  0.00    -0.287 OA
ENDBRANCH   7  10
ENDBRANCH   1   7
TORSDOF 4
REMARK  Name = ../refined-set-2016/4q7v/4q7v_pocket.pdb
REMARK  133 active torsions:
REMARK  status: ('A' for Active; 'I' for Inactive)
REMARK    1  A    between atoms: _1  and  _3
REMARK    2  A    between atoms: _3  and  _4
REMARK    3  A    between atoms: _3  and  _6
REMARK    4  A    between atoms: _6  and  _7
REMARK    5  A    between atoms: _17  and  _19
REMARK    6  A    between atoms: _19  and  _20
REMARK    7  A    between atoms: _19  and  _22
REMARK    8  A    between atoms: _22  and  _23
REMARK    9  A    between atoms: _28  and  _29
REMARK   10  A    between atoms: _31  and  _33
REMARK   11  A    between atoms: _33  and  _34
REMARK   12  A    between atoms: _33  and  _36
REMARK   13  A    between atoms: _36  and  _37
REMARK   14  A    between atoms: _39  and  _41
REMARK   15  A    between atoms: _41  and  _42
REMARK   16  A    between atoms: _41  and  _44
REMARK   17  A    between atoms: _44  and  _45
REMARK   18  A    between atoms: _50  and  _52
REMARK   19  A    between atoms: _52  and  _53
REMARK   20  A    between atoms: _52  and  _55
REMARK   21  A    between atoms: _55  and  _56
REMARK   22  A    between atoms: _61  and  _63
REMARK   23  A    between atoms: _63  and  _64
REMARK   24  A    between atoms: _67  and  _69
REMARK   25  A    between atoms: _69  and  _70
REMARK   26  A    between atoms: _69  and  _72
REMARK   27  A    between atoms: _72  and  _73
REMARK   28  A    between atoms: _78  and  _80
REMARK   29  A    between atoms: _80  and  _81
REMARK   30  A    between atoms: _80  and  _83
REMARK   31  A    between atoms: _83  and  _84
REMARK   32  A    between atoms: _87  and  _89
REMARK   33  A    between atoms: _89  and  _90
REMARK   34  A    between atoms: _89  and  _92
REMARK   35  A    between atoms: _92  and  _93
REMARK   36  A    between atoms: _93  and  _94
REMARK   37  A    between atoms: _99  and  _101
REMARK   38  A    between atoms: _112  and  _115
REMARK   39  A    between atoms: _115  and  _116
REMARK   40  A    between atoms: _124  and  _125
REMARK   41  A    between atoms: _133  and  _135
REMARK   42  A    between atoms: _135  and  _136
REMARK   43  A    between atoms: _135  and  _138
REMARK   44  A    between atoms: _138  and  _139
REMARK   45  A    between atoms: _139  and  _140
REMARK   46  A    between atoms: _143  and  _145
REMARK   47  A    between atoms: _145  and  _146
REMARK   48  A    between atoms: _145  and  _148
REMARK   49  A    between atoms: _148  and  _149
REMARK   50  A    between atoms: _154  and  _156
REMARK   51  A    between atoms: _156  and  _157
REMARK   52  A    between atoms: _156  and  _159
REMARK   53  A    between atoms: _159  and  _160
REMARK   54  A    between atoms: _160  and  _161
REMARK   55  A    between atoms: _164  and  _166
REMARK   56  A    between atoms: _166  and  _167
REMARK   57  A    between atoms: _166  and  _169
REMARK   58  A    between atoms: _169  and  _170
REMARK   59  A    between atoms: _173  and  _175
REMARK   60  A    between atoms: _175  and  _176
REMARK   61  A    between atoms: _175  and  _178
REMARK   62  A    between atoms: _178  and  _179
REMARK   63  A    between atoms: _180  and  ZN_374
REMARK   64  A    between atoms: _184  and  _186
REMARK   65  A    between atoms: _186  and  _187
REMARK   66  A    between atoms: _186  and  _189
REMARK   67  A    between atoms: _189  and  _190
REMARK   68  A    between atoms: _193  and  _195
REMARK   69  A    between atoms: _195  and  _196
REMARK   70  A    between atoms: _195  and  _198
REMARK   71  A    between atoms: _201  and  _203
REMARK   72  A    between atoms: _203  and  _204
REMARK   73  A    between atoms: _203  and  _206
REMARK   74  A    between atoms: _206  and  _207
REMARK   75  A    between atoms: _212  and  _214
REMARK   76  A    between atoms: _214  and  _215
REMARK   77  A    between atoms: _214  and  _217
REMARK   78  A    between atoms: _217  and  _218
REMARK   79  A    between atoms: _224  and  _226
REMARK   80  A    between atoms: _226  and  _227
REMARK   81  A    between atoms: _226  and  _229
REMARK   82  A    between atoms: _232  and  _234
REMARK   83  A    between atoms: _234  and  _235
REMARK   84  A    between atoms: _234  and  _237
REMARK   85  A    between atoms: _237  and  _238
REMARK   86  A    between atoms: _241  and  _243
REMARK   87  A    between atoms: _243  and  _244
REMARK   88  A    between atoms: _247  and  _249
REMARK   89  A    between atoms: _249  and  _250
REMARK   90  A    between atoms: _249  and  _252
REMARK   91  A    between atoms: _255  and  _257
REMARK   92  A    between atoms: _257  and  _258
REMARK   93  A    between atoms: _257  and  _260
REMARK   94  A    between atoms: _260  and  _261
REMARK   95  A    between atoms: _263  and  _265
REMARK   96  A    between atoms: _265  and  _266
REMARK   97  A    between atoms: _265  and  _268
REMARK   98  A    between atoms: _268  and  _269
REMARK   99  A    between atoms: _272  and  _274
REMARK  100  A    between atoms: _274  and  _275
REMARK  101  A    between atoms: _274  and  _277
REMARK  102  A    between atoms: _277  and  _278
REMARK  103  A    between atoms: _281  and  _283
REMARK  104  A    between atoms: _283  and  _284
REMARK  105  A    between atoms: _283  and  _286
REMARK  106  A    between atoms: _286  and  _287
REMARK  107  A    between atoms: _291  and  _292
REMARK  108  A    between atoms: _298  and  _299
REMARK  109  A    between atoms: _304  and  _306
REMARK  110  A    between atoms: _306  and  _307
REMARK  111  A    between atoms: _306  and  _309
REMARK  112  A    between atoms: _309  and  _310
REMARK  113  A    between atoms: _313  and  _315
REMARK  114  A    between atoms: _315  and  _316
REMARK  115  A    between atoms: _315  and  _318
REMARK  116  A    between atoms: _318  and  _319
REMARK  117  A    between atoms: _322  and  _324
REMARK  118  A    between atoms: _324  and  _325
REMARK  119  A    between atoms: _324  and  _327
REMARK  120  A    between atoms: _330  and  _332
REMARK  121  A    between atoms: _332  and  _333
REMARK  122  A    between atoms: _332  and  _335
REMARK  123  A    between atoms: _335  and  _336
REMARK  124  A    between atoms: _346  and  _348
REMARK  125  A    between atoms: _348  and  _349
REMARK  126  A    between atoms: _348  and  _351
REMARK  127  A    between atoms: _351  and  _352
REMARK  128  A    between atoms: _357  and  _359
REMARK  129  A    between atoms: _359  and  _360
REMARK  130  A    between atoms: _359  and  _362
REMARK  131  A    between atoms: _362  and  _363
REMARK  132  A    between atoms: _363  and  _364
REMARK  133  A    between atoms: _364  and  _365
REMARK                            x       y       z     vdW  Elec       q    Type
REMARK                         _______ _______ _______ _____ _____    ______ ____
ROOT
ATOM      1  NE  ARG A   1      23.240  -4.046  21.115  0.00  0.00    +0.330 N 
ATOM      2  CZ  ARG A   1      23.420  -3.002  21.936  0.00  0.00    +0.000 C 
ATOM      3  NH2 ARG A   1      24.678  -2.805  22.366  0.00  0.00    +0.330 N 
ATOM      4 HH21 ARG A   1      24.891  -2.013  23.006  0.00  0.00    +0.000 HD
ATOM      5 HH22 ARG A   1      25.439  -3.444  22.059  0.00  0.00    +0.000 HD
ATOM      6  NH1 ARG A   1      22.405  -2.199  22.329  0.00  0.00    +0.330 N 
ATOM      7 HH11 ARG A   1      22.592  -1.400  22.968  0.00  0.00    +0.000 HD
ATOM      8 HH12 ARG A   1      21.438  -2.381  21.993  0.00  0.00    +0.000 HD
ATOM      9  HE  ARG A   1      24.053  -4.673  20.949  0.00  0.00    +0.000 HD
ENDROOT
BRANCH   1  10
ATOM     10  CD  ARG A   1      21.934  -4.382  20.407  0.00  0.00    +0.000 C 
BRANCH  10  11
ATOM     11  CG  ARG A   1      22.110  -5.766  19.787  0.00  0.00    +0.000 C 
BRANCH  11  12
ATOM     12  CB  ARG A   1      20.964  -6.023  18.776  0.00  0.00    +0.000 C 
BRANCH  12  13
ATOM     13  CA  ARG A   1      20.854  -7.461  18.313  0.00  0.00    +0.000 C 
BRANCH  13  14
ATOM     14  N   ARG A   1      19.897  -7.490  17.184  0.00  0.00    +0.000 NA
ATOM     15  H   ARG A   1      19.143  -6.776  17.134  0.00  0.00    +0.000 HD
ENDBRANCH  13  14
BRANCH  13  16
ATOM     16  C   ARG A   1      20.374  -8.315  19.464  0.00  0.00    +0.000 C 
ATOM     17  O   ARG A   1      19.179  -8.341  19.738  0.00  0.00    +0.000 OA
ENDBRANCH  13  16
ENDBRANCH  12  13
ENDBRANCH  11  12
ENDBRANCH  10  11
ENDBRANCH   1  10
TORSDOF 6
REMARK  Name = ../refined-set-2016/4q7v/4q7v_pocket.pdb
REMARK  133 active torsions:
REMARK  status: ('A' for Active; 'I' for Inactive)
REMARK    1  A    between atoms: _1  and  _3
REMARK    2  A    between atoms: _3  and  _4
REMARK    3  A    between atoms: _3  and  _6
REMARK    4  A    between atoms: _6  and  _7
REMARK    5  A    between atoms: _17  and  _19
REMARK    6  A    between atoms: _19  and  _20
REMARK    7  A    between atoms: _19  and  _22
REMARK    8  A    between atoms: _22  and  _23
REMARK    9  A    between atoms: _28  and  _29
REMARK   10  A    between atoms: _31  and  _33
REMARK   11  A    between atoms: _33  and  _34
REMARK   12  A    between atoms: _33  and  _36
REMARK   13  A    between atoms: _36  and  _37
REMARK   14  A    between atoms: _39  and  _41
REMARK   15  A    between atoms: _41  and  _42
REMARK   16  A    between atoms: _41  and  _44
REMARK   17  A    between atoms: _44  and  _45
REMARK   18  A    between atoms: _50  and  _52
REMARK   19  A    between atoms: _52  and  _53
REMARK   20  A    between atoms: _52  and  _55
REMARK   21  A    between atoms: _55  and  _56
REMARK   22  A    between atoms: _61  and  _63
REMARK   23  A    between atoms: _63  and  _64
REMARK   24  A    between atoms: _67  and  _69
REMARK   25  A    between atoms: _69  and  _70
REMARK   26  A    between atoms: _69  and  _72
REMARK   27  A    between atoms: _72  and  _73
REMARK   28  A    between atoms: _78  and  _80
REMARK   29  A    between atoms: _80  and  _81
REMARK   30  A    between atoms: _80  and  _83
REMARK   31  A    between atoms: _83  and  _84
REMARK   32  A    between atoms: _87  and  _89
REMARK   33  A    between atoms: _89  and  _90
REMARK   34  A    between atoms: _89  and  _92
REMARK   35  A    between atoms: _92  and  _93
REMARK   36  A    between atoms: _93  and  _94
REMARK   37  A    between atoms: _99  and  _101
REMARK   38  A    between atoms: _112  and  _115
REMARK   39  A    between atoms: _115  and  _116
REMARK   40  A    between atoms: _124  and  _125
REMARK   41  A    between atoms: _133  and  _135
REMARK   42  A    between atoms: _135  and  _136
REMARK   43  A    between atoms: _135  and  _138
REMARK   44  A    between atoms: _138  and  _139
REMARK   45  A    between atoms: _139  and  _140
REMARK   46  A    between atoms: _143  and  _145
REMARK   47  A    between atoms: _145  and  _146
REMARK   48  A    between atoms: _145  and  _148
REMARK   49  A    between atoms: _148  and  _149
REMARK   50  A    between atoms: _154  and  _156
REMARK   51  A    between atoms: _156  and  _157
REMARK   52  A    between atoms: _156  and  _159
REMARK   53  A    between atoms: _159  and  _160
REMARK   54  A    between atoms: _160  and  _161
REMARK   55  A    between atoms: _164  and  _166
REMARK   56  A    between atoms: _166  and  _167
REMARK   57  A    between atoms: _166  and  _169
REMARK   58  A    between atoms: _169  and  _170
REMARK   59  A    between atoms: _173  and  _175
REMARK   60  A    between atoms: _175  and  _176
REMARK   61  A    between atoms: _175  and  _178
REMARK   62  A    between atoms: _178  and  _179
REMARK   63  A    between atoms: _180  and  ZN_374
REMARK   64  A    between atoms: _184  and  _186
REMARK   65  A    between atoms: _186  and  _187
REMARK   66  A    between atoms: _186  and  _189
REMARK   67  A    between atoms: _189  and  _190
REMARK   68  A    between atoms: _193  and  _195
REMARK   69  A    between atoms: _195  and  _196
REMARK   70  A    between atoms: _195  and  _198
REMARK   71  A    between atoms: _201  and  _203
REMARK   72  A    between atoms: _203  and  _204
REMARK   73  A    between atoms: _203  and  _206
REMARK   74  A    between atoms: _206  and  _207
REMARK   75  A    between atoms: _212  and  _214
REMARK   76  A    between atoms: _214  and  _215
REMARK   77  A    between atoms: _214  and  _217
REMARK   78  A    between atoms: _217  and  _218
REMARK   79  A    between atoms: _224  and  _226
REMARK   80  A    between atoms: _226  and  _227
REMARK   81  A    between atoms: _226  and  _229
REMARK   82  A    between atoms: _232  and  _234
REMARK   83  A    between atoms: _234  and  _235
REMARK   84  A    between atoms: _234  and  _237
REMARK   85  A    between atoms: _237  and  _238
REMARK   86  A    between atoms: _241  and  _243
REMARK   87  A    between atoms: _243  and  _244
REMARK   88  A    between atoms: _247  and  _249
REMARK   89  A    between atoms: _249  and  _250
REMARK   90  A    between atoms: _249  and  _252
REMARK   91  A    between atoms: _255  and  _257
REMARK   92  A    between atoms: _257  and  _258
REMARK   93  A    between atoms: _257  and  _260
REMARK   94  A    between atoms: _260  and  _261
REMARK   95  A    between atoms: _263  and  _265
REMARK   96  A    between atoms: _265  and  _266
REMARK   97  A    between atoms: _265  and  _268
REMARK   98  A    between atoms: _268  and  _269
REMARK   99  A    between atoms: _272  and  _274
REMARK  100  A    between atoms: _274  and  _275
REMARK  101  A    between atoms: _274  and  _277
REMARK  102  A    between atoms: _277  and  _278
REMARK  103  A    between atoms: _281  and  _283
REMARK  104  A    between atoms: _283  and  _284
REMARK  105  A    between atoms: _283  and  _286
REMARK  106  A    between atoms: _286  and  _287
REMARK  107  A    between atoms: _291  and  _292
REMARK  108  A    between atoms: _298  and  _299
REMARK  109  A    between atoms: _304  and  _306
REMARK  110  A    between atoms: _306  and  _307
REMARK  111  A    between atoms: _306  and  _309
REMARK  112  A    between atoms: _309  and  _310
REMARK  113  A    between atoms: _313  and  _315
REMARK  114  A    between atoms: _315  and  _316
REMARK  115  A    between atoms: _315  and  _318
REMARK  116  A    between atoms: _318  and  _319
REMARK  117  A    between atoms: _322  and  _324
REMARK  118  A    between atoms: _324  and  _325
REMARK  119  A    between atoms: _324  and  _327
REMARK  120  A    between atoms: _330  and  _332
REMARK  121  A    between atoms: _332  and  _333
REMARK  122  A    between atoms: _332  and  _335
REMARK  123  A    between atoms: _335  and  _336
REMARK  124  A    between atoms: _346  and  _348
REMARK  125  A    between atoms: _348  and  _349
REMARK  126  A    between atoms: _348  and  _351
REMARK  127  A    between atoms: _351  and  _352
REMARK  128  A    between atoms: _357  and  _359
REMARK  129  A    between atoms: _359  and  _360
REMARK  130  A    between atoms: _359  and  _362
REMARK  131  A    between atoms: _362  and  _363
REMARK  132  A    between atoms: _363  and  _364
REMARK  133  A    between atoms: _364  and  _365
REMARK                            x       y       z     vdW  Elec       q    Type
REMARK                         _______ _______ _______ _____ _____    ______ ____
ROOT
ATOM      1  O   HOH     1      18.560  -3.513  11.222  0.00  0.00    +0.000 OA
ENDROOT
TORSDOF 0
REMARK  Name = ../refined-set-2016/4q7v/4q7v_pocket.pdb
REMARK  133 active torsions:
REMARK  status: ('A' for Active; 'I' for Inactive)
REMARK    1  A    between atoms: _1  and  _3
REMARK    2  A    between atoms: _3  and  _4
REMARK    3  A    between atoms: _3  and  _6
REMARK    4  A    between atoms: _6  and  _7
REMARK    5  A    between atoms: _17  and  _19
REMARK    6  A    between atoms: _19  and  _20
REMARK    7  A    between atoms: _19  and  _22
REMARK    8  A    between atoms: _22  and  _23
REMARK    9  A    between atoms: _28  and  _29
REMARK   10  A    between atoms: _31  and  _33
REMARK   11  A    between atoms: _33  and  _34
REMARK   12  A    between atoms: _33  and  _36
REMARK   13  A    between atoms: _36  and  _37
REMARK   14  A    between atoms: _39  and  _41
REMARK   15  A    between atoms: _41  and  _42
REMARK   16  A    between atoms: _41  and  _44
REMARK   17  A    between atoms: _44  and  _45
REMARK   18  A    between atoms: _50  and  _52
REMARK   19  A    between atoms: _52  and  _53
REMARK   20  A    between atoms: _52  and  _55
REMARK   21  A    between atoms: _55  and  _56
REMARK   22  A    between atoms: _61  and  _63
REMARK   23  A    between atoms: _63  and  _64
REMARK   24  A    between atoms: _67  and  _69
REMARK   25  A    between atoms: _69  and  _70
REMARK   26  A    between atoms: _69  and  _72
REMARK   27  A    between atoms: _72  and  _73
REMARK   28  A    between atoms: _78  and  _80
REMARK   29  A    between atoms: _80  and  _81
REMARK   30  A    between atoms: _80  and  _83
REMARK   31  A    between atoms: _83  and  _84
REMARK   32  A    between atoms: _87  and  _89
REMARK   33  A    between atoms: _89  and  _90
REMARK   34  A    between atoms: _89  and  _92
REMARK   35  A    between atoms: _92  and  _93
REMARK   36  A    between atoms: _93  and  _94
REMARK   37  A    between atoms: _99  and  _101
REMARK   38  A    between atoms: _112  and  _115
REMARK   39  A    between atoms: _115  and  _116
REMARK   40  A    between atoms: _124  and  _125
REMARK   41  A    between atoms: _133  and  _135
REMARK   42  A    between atoms: _135  and  _136
REMARK   43  A    between atoms: _135  and  _138
REMARK   44  A    between atoms: _138  and  _139
REMARK   45  A    between atoms: _139  and  _140
REMARK   46  A    between atoms: _143  and  _145
REMARK   47  A    between atoms: _145  and  _146
REMARK   48  A    between atoms: _145  and  _148
REMARK   49  A    between atoms: _148  and  _149
REMARK   50  A    between atoms: _154  and  _156
REMARK   51  A    between atoms: _156  and  _157
REMARK   52  A    between atoms: _156  and  _159
REMARK   53  A    between atoms: _159  and  _160
REMARK   54  A    between atoms: _160  and  _161
REMARK   55  A    between atoms: _164  and  _166
REMARK   56  A    between atoms: _166  and  _167
REMARK   57  A    between atoms: _166  and  _169
REMARK   58  A    between atoms: _169  and  _170
REMARK   59  A    between atoms: _173  and  _175
REMARK   60  A    between atoms: _175  and  _176
REMARK   61  A    between atoms: _175  and  _178
REMARK   62  A    between atoms: _178  and  _179
REMARK   63  A    between atoms: _180  and  ZN_374
REMARK   64  A    between atoms: _184  and  _186
REMARK   65  A    between atoms: _186  and  _187
REMARK   66  A    between atoms: _186  and  _189
REMARK   67  A    between atoms: _189  and  _190
REMARK   68  A    between atoms: _193  and  _195
REMARK   69  A    between atoms: _195  and  _196
REMARK   70  A    between atoms: _195  and  _198
REMARK   71  A    between atoms: _201  and  _203
REMARK   72  A    between atoms: _203  and  _204
REMARK   73  A    between atoms: _203  and  _206
REMARK   74  A    between atoms: _206  and  _207
REMARK   75  A    between atoms: _212  and  _214
REMARK   76  A    between atoms: _214  and  _215
REMARK   77  A    between atoms: _214  and  _217
REMARK   78  A    between atoms: _217  and  _218
REMARK   79  A    between atoms: _224  and  _226
REMARK   80  A    between atoms: _226  and  _227
REMARK   81  A    between atoms: _226  and  _229
REMARK   82  A    between atoms: _232  and  _234
REMARK   83  A    between atoms: _234  and  _235
REMARK   84  A    between atoms: _234  and  _237
REMARK   85  A    between atoms: _237  and  _238
REMARK   86  A    between atoms: _241  and  _243
REMARK   87  A    between atoms: _243  and  _244
REMARK   88  A    between atoms: _247  and  _249
REMARK   89  A    between atoms: _249  and  _250
REMARK   90  A    between atoms: _249  and  _252
REMARK   91  A    between atoms: _255  and  _257
REMARK   92  A    between atoms: _257  and  _258
REMARK   93  A    between atoms: _257  and  _260
REMARK   94  A    between atoms: _260  and  _261
REMARK   95  A    between atoms: _263  and  _265
REMARK   96  A    between atoms: _265  and  _266
REMARK   97  A    between atoms: _265  and  _268
REMARK   98  A    between atoms: _268  and  _269
REMARK   99  A    between atoms: _272  and  _274
REMARK  100  A    between atoms: _274  and  _275
REMARK  101  A    between atoms: _274  and  _277
REMARK  102  A    between atoms: _277  and  _278
REMARK  103  A    between atoms: _281  and  _283
REMARK  104  A    between atoms: _283  and  _284
REMARK  105  A    between atoms: _283  and  _286
REMARK  106  A    between atoms: _286  and  _287
REMARK  107  A    between atoms: _291  and  _292
REMARK  108  A    between atoms: _298  and  _299
REMARK  109  A    between atoms: _304  and  _306
REMARK  110  A    between atoms: _306  and  _307
REMARK  111  A    between atoms: _306  and  _309
REMARK  112  A    between atoms: _309  and  _310
REMARK  113  A    between atoms: _313  and  _315
REMARK  114  A    between atoms: _315  and  _316
REMARK  115  A    between atoms: _315  and  _318
REMARK  116  A    between atoms: _318  and  _319
REMARK  117  A    between atoms: _322  and  _324
REMARK  118  A    between atoms: _324  and  _325
REMARK  119  A    between atoms: _324  and  _327
REMARK  120  A    between atoms: _330  and  _332
REMARK  121  A    between atoms: _332  and  _333
REMARK  122  A    between atoms: _332  and  _335
REMARK  123  A    between atoms: _335  and  _336
REMARK  124  A    between atoms: _346  and  _348
REMARK  125  A    between atoms: _348  and  _349
REMARK  126  A    between atoms: _348  and  _351
REMARK  127  A    between atoms: _351  and  _352
REMARK  128  A    between atoms: _357  and  _359
REMARK  129  A    between atoms: _359  and  _360
REMARK  130  A    between atoms: _359  and  _362
REMARK  131  A    between atoms: _362  and  _363
REMARK  132  A    between atoms: _363  and  _364
REMARK  133  A    between atoms: _364  and  _365
REMARK                            x       y       z     vdW  Elec       q    Type
REMARK                         _______ _______ _______ _____ _____    ______ ____
ROOT
ATOM      1  O   HOH     1      16.705  -0.807  11.959  0.00  0.00    +0.000 OA
ENDROOT
TORSDOF 0
REMARK  Name = ../refined-set-2016/4q7v/4q7v_pocket.pdb
REMARK  133 active torsions:
REMARK  status: ('A' for Active; 'I' for Inactive)
REMARK    1  A    between atoms: _1  and  _3
REMARK    2  A    between atoms: _3  and  _4
REMARK    3  A    between atoms: _3  and  _6
REMARK    4  A    between atoms: _6  and  _7
REMARK    5  A    between atoms: _17  and  _19
REMARK    6  A    between atoms: _19  and  _20
REMARK    7  A    between atoms: _19  and  _22
REMARK    8  A    between atoms: _22  and  _23
REMARK    9  A    between atoms: _28  and  _29
REMARK   10  A    between atoms: _31  and  _33
REMARK   11  A    between atoms: _33  and  _34
REMARK   12  A    between atoms: _33  and  _36
REMARK   13  A    between atoms: _36  and  _37
REMARK   14  A    between atoms: _39  and  _41
REMARK   15  A    between atoms: _41  and  _42
REMARK   16  A    between atoms: _41  and  _44
REMARK   17  A    between atoms: _44  and  _45
REMARK   18  A    between atoms: _50  and  _52
REMARK   19  A    between atoms: _52  and  _53
REMARK   20  A    between atoms: _52  and  _55
REMARK   21  A    between atoms: _55  and  _56
REMARK   22  A    between atoms: _61  and  _63
REMARK   23  A    between atoms: _63  and  _64
REMARK   24  A    between atoms: _67  and  _69
REMARK   25  A    between atoms: _69  and  _70
REMARK   26  A    between atoms: _69  and  _72
REMARK   27  A    between atoms: _72  and  _73
REMARK   28  A    between atoms: _78  and  _80
REMARK   29  A    between atoms: _80  and  _81
REMARK   30  A    between atoms: _80  and  _83
REMARK   31  A    between atoms: _83  and  _84
REMARK   32  A    between atoms: _87  and  _89
REMARK   33  A    between atoms: _89  and  _90
REMARK   34  A    between atoms: _89  and  _92
REMARK   35  A    between atoms: _92  and  _93
REMARK   36  A    between atoms: _93  and  _94
REMARK   37  A    between atoms: _99  and  _101
REMARK   38  A    between atoms: _112  and  _115
REMARK   39  A    between atoms: _115  and  _116
REMARK   40  A    between atoms: _124  and  _125
REMARK   41  A    between atoms: _133  and  _135
REMARK   42  A    between atoms: _135  and  _136
REMARK   43  A    between atoms: _135  and  _138
REMARK   44  A    between atoms: _138  and  _139
REMARK   45  A    between atoms: _139  and  _140
REMARK   46  A    between atoms: _143  and  _145
REMARK   47  A    between atoms: _145  and  _146
REMARK   48  A    between atoms: _145  and  _148
REMARK   49  A    between atoms: _148  and  _149
REMARK   50  A    between atoms: _154  and  _156
REMARK   51  A    between atoms: _156  and  _157
REMARK   52  A    between atoms: _156  and  _159
REMARK   53  A    between atoms: _159  and  _160
REMARK   54  A    between atoms: _160  and  _161
REMARK   55  A    between atoms: _164  and  _166
REMARK   56  A    between atoms: _166  and  _167
REMARK   57  A    between atoms: _166  and  _169
REMARK   58  A    between atoms: _169  and  _170
REMARK   59  A    between atoms: _173  and  _175
REMARK   60  A    between atoms: _175  and  _176
REMARK   61  A    between atoms: _175  and  _178
REMARK   62  A    between atoms: _178  and  _179
REMARK   63  A    between atoms: _180  and  ZN_374
REMARK   64  A    between atoms: _184  and  _186
REMARK   65  A    between atoms: _186  and  _187
REMARK   66  A    between atoms: _186  and  _189
REMARK   67  A    between atoms: _189  and  _190
REMARK   68  A    between atoms: _193  and  _195
REMARK   69  A    between atoms: _195  and  _196
REMARK   70  A    between atoms: _195  and  _198
REMARK   71  A    between atoms: _201  and  _203
REMARK   72  A    between atoms: _203  and  _204
REMARK   73  A    between atoms: _203  and  _206
REMARK   74  A    between atoms: _206  and  _207
REMARK   75  A    between atoms: _212  and  _214
REMARK   76  A    between atoms: _214  and  _215
REMARK   77  A    between atoms: _214  and  _217
REMARK   78  A    between atoms: _217  and  _218
REMARK   79  A    between atoms: _224  and  _226
REMARK   80  A    between atoms: _226  and  _227
REMARK   81  A    between atoms: _226  and  _229
REMARK   82  A    between atoms: _232  and  _234
REMARK   83  A    between atoms: _234  and  _235
REMARK   84  A    between atoms: _234  and  _237
REMARK   85  A    between atoms: _237  and  _238
REMARK   86  A    between atoms: _241  and  _243
REMARK   87  A    between atoms: _243  and  _244
REMARK   88  A    between atoms: _247  and  _249
REMARK   89  A    between atoms: _249  and  _250
REMARK   90  A    between atoms: _249  and  _252
REMARK   91  A    between atoms: _255  and  _257
REMARK   92  A    between atoms: _257  and  _258
REMARK   93  A    between atoms: _257  and  _260
REMARK   94  A    between atoms: _260  and  _261
REMARK   95  A    between atoms: _263  and  _265
REMARK   96  A    between atoms: _265  and  _266
REMARK   97  A    between atoms: _265  and  _268
REMARK   98  A    between atoms: _268  and  _269
REMARK   99  A    between atoms: _272  and  _274
REMARK  100  A    between atoms: _274  and  _275
REMARK  101  A    between atoms: _274  and  _277
REMARK  102  A    between atoms: _277  and  _278
REMARK  103  A    between atoms: _281  and  _283
REMARK  104  A    between atoms: _283  and  _284
REMARK  105  A    between atoms: _283  and  _286
REMARK  106  A    between atoms: _286  and  _287
REMARK  107  A    between atoms: _291  and  _292
REMARK  108  A    between atoms: _298  and  _299
REMARK  109  A    between atoms: _304  and  _306
REMARK  110  A    between atoms: _306  and  _307
REMARK  111  A    between atoms: _306  and  _309
REMARK  112  A    between atoms: _309  and  _310
REMARK  113  A    between atoms: _313  and  _315
REMARK  114  A    between atoms: _315  and  _316
REMARK  115  A    between atoms: _315  and  _318
REMARK  116  A    between atoms: _318  and  _319
REMARK  117  A    between atoms: _322  and  _324
REMARK  118  A    between atoms: _324  and  _325
REMARK  119  A    between atoms: _324  and  _327
REMARK  120  A    between atoms: _330  and  _332
REMARK  121  A    between atoms: _332  and  _333
REMARK  122  A    between atoms: _332  and  _335
REMARK  123  A    between atoms: _335  and  _336
REMARK  124  A    between atoms: _346  and  _348
REMARK  125  A    between atoms: _348  and  _349
REMARK  126  A    between atoms: _348  and  _351
REMARK  127  A    between atoms: _351  and  _352
REMARK  128  A    between atoms: _357  and  _359
REMARK  129  A    between atoms: _359  and  _360
REMARK  130  A    between atoms: _359  and  _362
REMARK  131  A    between atoms: _362  and  _363
REMARK  132  A    between atoms: _363  and  _364
REMARK  133  A    between atoms: _364  and  _365
REMARK                            x       y       z     vdW  Elec       q    Type
REMARK                         _______ _______ _______ _____ _____    ______ ____
ROOT
ATOM      1  O   HOH     1      19.732  -4.374  15.639  0.00  0.00    +0.000 OA
ENDROOT
TORSDOF 0
REMARK  Name = ../refined-set-2016/4q7v/4q7v_pocket.pdb
REMARK  133 active torsions:
REMARK  status: ('A' for Active; 'I' for Inactive)
REMARK    1  A    between atoms: _1  and  _3
REMARK    2  A    between atoms: _3  and  _4
REMARK    3  A    between atoms: _3  and  _6
REMARK    4  A    between atoms: _6  and  _7
REMARK    5  A    between atoms: _17  and  _19
REMARK    6  A    between atoms: _19  and  _20
REMARK    7  A    between atoms: _19  and  _22
REMARK    8  A    between atoms: _22  and  _23
REMARK    9  A    between atoms: _28  and  _29
REMARK   10  A    between atoms: _31  and  _33
REMARK   11  A    between atoms: _33  and  _34
REMARK   12  A    between atoms: _33  and  _36
REMARK   13  A    between atoms: _36  and  _37
REMARK   14  A    between atoms: _39  and  _41
REMARK   15  A    between atoms: _41  and  _42
REMARK   16  A    between atoms: _41  and  _44
REMARK   17  A    between atoms: _44  and  _45
REMARK   18  A    between atoms: _50  and  _52
REMARK   19  A    between atoms: _52  and  _53
REMARK   20  A    between atoms: _52  and  _55
REMARK   21  A    between atoms: _55  and  _56
REMARK   22  A    between atoms: _61  and  _63
REMARK   23  A    between atoms: _63  and  _64
REMARK   24  A    between atoms: _67  and  _69
REMARK   25  A    between atoms: _69  and  _70
REMARK   26  A    between atoms: _69  and  _72
REMARK   27  A    between atoms: _72  and  _73
REMARK   28  A    between atoms: _78  and  _80
REMARK   29  A    between atoms: _80  and  _81
REMARK   30  A    between atoms: _80  and  _83
REMARK   31  A    between atoms: _83  and  _84
REMARK   32  A    between atoms: _87  and  _89
REMARK   33  A    between atoms: _89  and  _90
REMARK   34  A    between atoms: _89  and  _92
REMARK   35  A    between atoms: _92  and  _93
REMARK   36  A    between atoms: _93  and  _94
REMARK   37  A    between atoms: _99  and  _101
REMARK   38  A    between atoms: _112  and  _115
REMARK   39  A    between atoms: _115  and  _116
REMARK   40  A    between atoms: _124  and  _125
REMARK   41  A    between atoms: _133  and  _135
REMARK   42  A    between atoms: _135  and  _136
REMARK   43  A    between atoms: _135  and  _138
REMARK   44  A    between atoms: _138  and  _139
REMARK   45  A    between atoms: _139  and  _140
REMARK   46  A    between atoms: _143  and  _145
REMARK   47  A    between atoms: _145  and  _146
REMARK   48  A    between atoms: _145  and  _148
REMARK   49  A    between atoms: _148  and  _149
REMARK   50  A    between atoms: _154  and  _156
REMARK   51  A    between atoms: _156  and  _157
REMARK   52  A    between atoms: _156  and  _159
REMARK   53  A    between atoms: _159  and  _160
REMARK   54  A    between atoms: _160  and  _161
REMARK   55  A    between atoms: _164  and  _166
REMARK   56  A    between atoms: _166  and  _167
REMARK   57  A    between atoms: _166  and  _169
REMARK   58  A    between atoms: _169  and  _170
REMARK   59  A    between atoms: _173  and  _175
REMARK   60  A    between atoms: _175  and  _176
REMARK   61  A    between atoms: _175  and  _178
REMARK   62  A    between atoms: _178  and  _179
REMARK   63  A    between atoms: _180  and  ZN_374
REMARK   64  A    between atoms: _184  and  _186
REMARK   65  A    between atoms: _186  and  _187
REMARK   66  A    between atoms: _186  and  _189
REMARK   67  A    between atoms: _189  and  _190
REMARK   68  A    between atoms: _193  and  _195
REMARK   69  A    between atoms: _195  and  _196
REMARK   70  A    between atoms: _195  and  _198
REMARK   71  A    between atoms: _201  and  _203
REMARK   72  A    between atoms: _203  and  _204
REMARK   73  A    between atoms: _203  and  _206
REMARK   74  A    between atoms: _206  and  _207
REMARK   75  A    between atoms: _212  and  _214
REMARK   76  A    between atoms: _214  and  _215
REMARK   77  A    between atoms: _214  and  _217
REMARK   78  A    between atoms: _217  and  _218
REMARK   79  A    between atoms: _224  and  _226
REMARK   80  A    between atoms: _226  and  _227
REMARK   81  A    between atoms: _226  and  _229
REMARK   82  A    between atoms: _232  and  _234
REMARK   83  A    between atoms: _234  and  _235
REMARK   84  A    between atoms: _234  and  _237
REMARK   85  A    between atoms: _237  and  _238
REMARK   86  A    between atoms: _241  and  _243
REMARK   87  A    between atoms: _243  and  _244
REMARK   88  A    between atoms: _247  and  _249
REMARK   89  A    between atoms: _249  and  _250
REMARK   90  A    between atoms: _249  and  _252
REMARK   91  A    between atoms: _255  and  _257
REMARK   92  A    between atoms: _257  and  _258
REMARK   93  A    between atoms: _257  and  _260
REMARK   94  A    between atoms: _260  and  _261
REMARK   95  A    between atoms: _263  and  _265
REMARK   96  A    between atoms: _265  and  _266
REMARK   97  A    between atoms: _265  and  _268
REMARK   98  A    between atoms: _268  and  _269
REMARK   99  A    between atoms: _272  and  _274
REMARK  100  A    between atoms: _274  and  _275
REMARK  101  A    between atoms: _274  and  _277
REMARK  102  A    between atoms: _277  and  _278
REMARK  103  A    between atoms: _281  and  _283
REMARK  104  A    between atoms: _283  and  _284
REMARK  105  A    between atoms: _283  and  _286
REMARK  106  A    between atoms: _286  and  _287
REMARK  107  A    between atoms: _291  and  _292
REMARK  108  A    between atoms: _298  and  _299
REMARK  109  A    between atoms: _304  and  _306
REMARK  110  A    between atoms: _306  and  _307
REMARK  111  A    between atoms: _306  and  _309
REMARK  112  A    between atoms: _309  and  _310
REMARK  113  A    between atoms: _313  and  _315
REMARK  114  A    between atoms: _315  and  _316
REMARK  115  A    between atoms: _315  and  _318
REMARK  116  A    between atoms: _318  and  _319
REMARK  117  A    between atoms: _322  and  _324
REMARK  118  A    between atoms: _324  and  _325
REMARK  119  A    between atoms: _324  and  _327
REMARK  120  A    between atoms: _330  and  _332
REMARK  121  A    between atoms: _332  and  _333
REMARK  122  A    between atoms: _332  and  _335
REMARK  123  A    between atoms: _335  and  _336
REMARK  124  A    between atoms: _346  and  _348
REMARK  125  A    between atoms: _348  and  _349
REMARK  126  A    between atoms: _348  and  _351
REMARK  127  A    between atoms: _351  and  _352
REMARK  128  A    between atoms: _357  and  _359
REMARK  129  A    between atoms: _359  and  _360
REMARK  130  A    between atoms: _359  and  _362
REMARK  131  A    between atoms: _362  and  _363
REMARK  132  A    between atoms: _363  and  _364
REMARK  133  A    between atoms: _364  and  _365
REMARK                            x       y       z     vdW  Elec       q    Type
REMARK                         _______ _______ _______ _____ _____    ______ ____
ROOT
ATOM      1  O   HOH     1      14.537   6.721  10.665  0.00  0.00    +0.000 OA
ENDROOT
TORSDOF 0
REMARK  Name = ../refined-set-2016/4q7v/4q7v_pocket.pdb
REMARK  133 active torsions:
REMARK  status: ('A' for Active; 'I' for Inactive)
REMARK    1  A    between atoms: _1  and  _3
REMARK    2  A    between atoms: _3  and  _4
REMARK    3  A    between atoms: _3  and  _6
REMARK    4  A    between atoms: _6  and  _7
REMARK    5  A    between atoms: _17  and  _19
REMARK    6  A    between atoms: _19  and  _20
REMARK    7  A    between atoms: _19  and  _22
REMARK    8  A    between atoms: _22  and  _23
REMARK    9  A    between atoms: _28  and  _29
REMARK   10  A    between atoms: _31  and  _33
REMARK   11  A    between atoms: _33  and  _34
REMARK   12  A    between atoms: _33  and  _36
REMARK   13  A    between atoms: _36  and  _37
REMARK   14  A    between atoms: _39  and  _41
REMARK   15  A    between atoms: _41  and  _42
REMARK   16  A    between atoms: _41  and  _44
REMARK   17  A    between atoms: _44  and  _45
REMARK   18  A    between atoms: _50  and  _52
REMARK   19  A    between atoms: _52  and  _53
REMARK   20  A    between atoms: _52  and  _55
REMARK   21  A    between atoms: _55  and  _56
REMARK   22  A    between atoms: _61  and  _63
REMARK   23  A    between atoms: _63  and  _64
REMARK   24  A    between atoms: _67  and  _69
REMARK   25  A    between atoms: _69  and  _70
REMARK   26  A    between atoms: _69  and  _72
REMARK   27  A    between atoms: _72  and  _73
REMARK   28  A    between atoms: _78  and  _80
REMARK   29  A    between atoms: _80  and  _81
REMARK   30  A    between atoms: _80  and  _83
REMARK   31  A    between atoms: _83  and  _84
REMARK   32  A    between atoms: _87  and  _89
REMARK   33  A    between atoms: _89  and  _90
REMARK   34  A    between atoms: _89  and  _92
REMARK   35  A    between atoms: _92  and  _93
REMARK   36  A    between atoms: _93  and  _94
REMARK   37  A    between atoms: _99  and  _101
REMARK   38  A    between atoms: _112  and  _115
REMARK   39  A    between atoms: _115  and  _116
REMARK   40  A    between atoms: _124  and  _125
REMARK   41  A    between atoms: _133  and  _135
REMARK   42  A    between atoms: _135  and  _136
REMARK   43  A    between atoms: _135  and  _138
REMARK   44  A    between atoms: _138  and  _139
REMARK   45  A    between atoms: _139  and  _140
REMARK   46  A    between atoms: _143  and  _145
REMARK   47  A    between atoms: _145  and  _146
REMARK   48  A    between atoms: _145  and  _148
REMARK   49  A    between atoms: _148  and  _149
REMARK   50  A    between atoms: _154  and  _156
REMARK   51  A    between atoms: _156  and  _157
REMARK   52  A    between atoms: _156  and  _159
REMARK   53  A    between atoms: _159  and  _160
REMARK   54  A    between atoms: _160  and  _161
REMARK   55  A    between atoms: _164  and  _166
REMARK   56  A    between atoms: _166  and  _167
REMARK   57  A    between atoms: _166  and  _169
REMARK   58  A    between atoms: _169  and  _170
REMARK   59  A    between atoms: _173  and  _175
REMARK   60  A    between atoms: _175  and  _176
REMARK   61  A    between atoms: _175  and  _178
REMARK   62  A    between atoms: _178  and  _179
REMARK   63  A    between atoms: _180  and  ZN_374
REMARK   64  A    between atoms: _184  and  _186
REMARK   65  A    between atoms: _186  and  _187
REMARK   66  A    between atoms: _186  and  _189
REMARK   67  A    between atoms: _189  and  _190
REMARK   68  A    between atoms: _193  and  _195
REMARK   69  A    between atoms: _195  and  _196
REMARK   70  A    between atoms: _195  and  _198
REMARK   71  A    between atoms: _201  and  _203
REMARK   72  A    between atoms: _203  and  _204
REMARK   73  A    between atoms: _203  and  _206
REMARK   74  A    between atoms: _206  and  _207
REMARK   75  A    between atoms: _212  and  _214
REMARK   76  A    between atoms: _214  and  _215
REMARK   77  A    between atoms: _214  and  _217
REMARK   78  A    between atoms: _217  and  _218
REMARK   79  A    between atoms: _224  and  _226
REMARK   80  A    between atoms: _226  and  _227
REMARK   81  A    between atoms: _226  and  _229
REMARK   82  A    between atoms: _232  and  _234
REMARK   83  A    between atoms: _234  and  _235
REMARK   84  A    between atoms: _234  and  _237
REMARK   85  A    between atoms: _237  and  _238
REMARK   86  A    between atoms: _241  and  _243
REMARK   87  A    between atoms: _243  and  _244
REMARK   88  A    between atoms: _247  and  _249
REMARK   89  A    between atoms: _249  and  _250
REMARK   90  A    between atoms: _249  and  _252
REMARK   91  A    between atoms: _255  and  _257
REMARK   92  A    between atoms: _257  and  _258
REMARK   93  A    between atoms: _257  and  _260
REMARK   94  A    between atoms: _260  and  _261
REMARK   95  A    between atoms: _263  and  _265
REMARK   96  A    between atoms: _265  and  _266
REMARK   97  A    between atoms: _265  and  _268
REMARK   98  A    between atoms: _268  and  _269
REMARK   99  A    between atoms: _272  and  _274
REMARK  100  A    between atoms: _274  and  _275
REMARK  101  A    between atoms: _274  and  _277
REMARK  102  A    between atoms: _277  and  _278
REMARK  103  A    between atoms: _281  and  _283
REMARK  104  A    between atoms: _283  and  _284
REMARK  105  A    between atoms: _283  and  _286
REMARK  106  A    between atoms: _286  and  _287
REMARK  107  A    between atoms: _291  and  _292
REMARK  108  A    between atoms: _298  and  _299
REMARK  109  A    between atoms: _304  and  _306
REMARK  110  A    between atoms: _306  and  _307
REMARK  111  A    between atoms: _306  and  _309
REMARK  112  A    between atoms: _309  and  _310
REMARK  113  A    between atoms: _313  and  _315
REMARK  114  A    between atoms: _315  and  _316
REMARK  115  A    between atoms: _315  and  _318
REMARK  116  A    between atoms: _318  and  _319
REMARK  117  A    between atoms: _322  and  _324
REMARK  118  A    between atoms: _324  and  _325
REMARK  119  A    between atoms: _324  and  _327
REMARK  120  A    between atoms: _330  and  _332
REMARK  121  A    between atoms: _332  and  _333
REMARK  122  A    between atoms: _332  and  _335
REMARK  123  A    between atoms: _335  and  _336
REMARK  124  A    between atoms: _346  and  _348
REMARK  125  A    between atoms: _348  and  _349
REMARK  126  A    between atoms: _348  and  _351
REMARK  127  A    between atoms: _351  and  _352
REMARK  128  A    between atoms: _357  and  _359
REMARK  129  A    between atoms: _359  and  _360
REMARK  130  A    between atoms: _359  and  _362
REMARK  131  A    between atoms: _362  and  _363
REMARK  132  A    between atoms: _363  and  _364
REMARK  133  A    between atoms: _364  and  _365
REMARK                            x       y       z     vdW  Elec       q    Type
REMARK                         _______ _______ _______ _____ _____    ______ ____
ROOT
ATOM      1  O   HOH     1      19.860   3.431  13.700  0.00  0.00    +0.000 OA
ENDROOT
TORSDOF 0
REMARK  Name = ../refined-set-2016/4q7v/4q7v_pocket.pdb
REMARK  133 active torsions:
REMARK  status: ('A' for Active; 'I' for Inactive)
REMARK    1  A    between atoms: _1  and  _3
REMARK    2  A    between atoms: _3  and  _4
REMARK    3  A    between atoms: _3  and  _6
REMARK    4  A    between atoms: _6  and  _7
REMARK    5  A    between atoms: _17  and  _19
REMARK    6  A    between atoms: _19  and  _20
REMARK    7  A    between atoms: _19  and  _22
REMARK    8  A    between atoms: _22  and  _23
REMARK    9  A    between atoms: _28  and  _29
REMARK   10  A    between atoms: _31  and  _33
REMARK   11  A    between atoms: _33  and  _34
REMARK   12  A    between atoms: _33  and  _36
REMARK   13  A    between atoms: _36  and  _37
REMARK   14  A    between atoms: _39  and  _41
REMARK   15  A    between atoms: _41  and  _42
REMARK   16  A    between atoms: _41  and  _44
REMARK   17  A    between atoms: _44  and  _45
REMARK   18  A    between atoms: _50  and  _52
REMARK   19  A    between atoms: _52  and  _53
REMARK   20  A    between atoms: _52  and  _55
REMARK   21  A    between atoms: _55  and  _56
REMARK   22  A    between atoms: _61  and  _63
REMARK   23  A    between atoms: _63  and  _64
REMARK   24  A    between atoms: _67  and  _69
REMARK   25  A    between atoms: _69  and  _70
REMARK   26  A    between atoms: _69  and  _72
REMARK   27  A    between atoms: _72  and  _73
REMARK   28  A    between atoms: _78  and  _80
REMARK   29  A    between atoms: _80  and  _81
REMARK   30  A    between atoms: _80  and  _83
REMARK   31  A    between atoms: _83  and  _84
REMARK   32  A    between atoms: _87  and  _89
REMARK   33  A    between atoms: _89  and  _90
REMARK   34  A    between atoms: _89  and  _92
REMARK   35  A    between atoms: _92  and  _93
REMARK   36  A    between atoms: _93  and  _94
REMARK   37  A    between atoms: _99  and  _101
REMARK   38  A    between atoms: _112  and  _115
REMARK   39  A    between atoms: _115  and  _116
REMARK   40  A    between atoms: _124  and  _125
REMARK   41  A    between atoms: _133  and  _135
REMARK   42  A    between atoms: _135  and  _136
REMARK   43  A    between atoms: _135  and  _138
REMARK   44  A    between atoms: _138  and  _139
REMARK   45  A    between atoms: _139  and  _140
REMARK   46  A    between atoms: _143  and  _145
REMARK   47  A    between atoms: _145  and  _146
REMARK   48  A    between atoms: _145  and  _148
REMARK   49  A    between atoms: _148  and  _149
REMARK   50  A    between atoms: _154  and  _156
REMARK   51  A    between atoms: _156  and  _157
REMARK   52  A    between atoms: _156  and  _159
REMARK   53  A    between atoms: _159  and  _160
REMARK   54  A    between atoms: _160  and  _161
REMARK   55  A    between atoms: _164  and  _166
REMARK   56  A    between atoms: _166  and  _167
REMARK   57  A    between atoms: _166  and  _169
REMARK   58  A    between atoms: _169  and  _170
REMARK   59  A    between atoms: _173  and  _175
REMARK   60  A    between atoms: _175  and  _176
REMARK   61  A    between atoms: _175  and  _178
REMARK   62  A    between atoms: _178  and  _179
REMARK   63  A    between atoms: _180  and  ZN_374
REMARK   64  A    between atoms: _184  and  _186
REMARK   65  A    between atoms: _186  and  _187
REMARK   66  A    between atoms: _186  and  _189
REMARK   67  A    between atoms: _189  and  _190
REMARK   68  A    between atoms: _193  and  _195
REMARK   69  A    between atoms: _195  and  _196
REMARK   70  A    between atoms: _195  and  _198
REMARK   71  A    between atoms: _201  and  _203
REMARK   72  A    between atoms: _203  and  _204
REMARK   73  A    between atoms: _203  and  _206
REMARK   74  A    between atoms: _206  and  _207
REMARK   75  A    between atoms: _212  and  _214
REMARK   76  A    between atoms: _214  and  _215
REMARK   77  A    between atoms: _214  and  _217
REMARK   78  A    between atoms: _217  and  _218
REMARK   79  A    between atoms: _224  and  _226
REMARK   80  A    between atoms: _226  and  _227
REMARK   81  A    between atoms: _226  and  _229
REMARK   82  A    between atoms: _232  and  _234
REMARK   83  A    between atoms: _234  and  _235
REMARK   84  A    between atoms: _234  and  _237
REMARK   85  A    between atoms: _237  and  _238
REMARK   86  A    between atoms: _241  and  _243
REMARK   87  A    between atoms: _243  and  _244
REMARK   88  A    between atoms: _247  and  _249
REMARK   89  A    between atoms: _249  and  _250
REMARK   90  A    between atoms: _249  and  _252
REMARK   91  A    between atoms: _255  and  _257
REMARK   92  A    between atoms: _257  and  _258
REMARK   93  A    between atoms: _257  and  _260
REMARK   94  A    between atoms: _260  and  _261
REMARK   95  A    between atoms: _263  and  _265
REMARK   96  A    between atoms: _265  and  _266
REMARK   97  A    between atoms: _265  and  _268
REMARK   98  A    between atoms: _268  and  _269
REMARK   99  A    between atoms: _272  and  _274
REMARK  100  A    between atoms: _274  and  _275
REMARK  101  A    between atoms: _274  and  _277
REMARK  102  A    between atoms: _277  and  _278
REMARK  103  A    between atoms: _281  and  _283
REMARK  104  A    between atoms: _283  and  _284
REMARK  105  A    between atoms: _283  and  _286
REMARK  106  A    between atoms: _286  and  _287
REMARK  107  A    between atoms: _291  and  _292
REMARK  108  A    between atoms: _298  and  _299
REMARK  109  A    between atoms: _304  and  _306
REMARK  110  A    between atoms: _306  and  _307
REMARK  111  A    between atoms: _306  and  _309
REMARK  112  A    between atoms: _309  and  _310
REMARK  113  A    between atoms: _313  and  _315
REMARK  114  A    between atoms: _315  and  _316
REMARK  115  A    between atoms: _315  and  _318
REMARK  116  A    between atoms: _318  and  _319
REMARK  117  A    between atoms: _322  and  _324
REMARK  118  A    between atoms: _324  and  _325
REMARK  119  A    between atoms: _324  and  _327
REMARK  120  A    between atoms: _330  and  _332
REMARK  121  A    between atoms: _332  and  _333
REMARK  122  A    between atoms: _332  and  _335
REMARK  123  A    between atoms: _335  and  _336
REMARK  124  A    between atoms: _346  and  _348
REMARK  125  A    between atoms: _348  and  _349
REMARK  126  A    between atoms: _348  and  _351
REMARK  127  A    between atoms: _351  and  _352
REMARK  128  A    between atoms: _357  and  _359
REMARK  129  A    between atoms: _359  and  _360
REMARK  130  A    between atoms: _359  and  _362
REMARK  131  A    between atoms: _362  and  _363
REMARK  132  A    between atoms: _363  and  _364
REMARK  133  A    between atoms: _364  and  _365
REMARK                            x       y       z     vdW  Elec       q    Type
REMARK                         _______ _______ _______ _____ _____    ______ ____
ROOT
ATOM      1  O   HOH     1      14.048   5.855   6.414  0.00  0.00    +0.000 OA
ENDROOT
TORSDOF 0
REMARK  Name = ../refined-set-2016/4q7v/4q7v_pocket.pdb
REMARK  133 active torsions:
REMARK  status: ('A' for Active; 'I' for Inactive)
REMARK    1  A    between atoms: _1  and  _3
REMARK    2  A    between atoms: _3  and  _4
REMARK    3  A    between atoms: _3  and  _6
REMARK    4  A    between atoms: _6  and  _7
REMARK    5  A    between atoms: _17  and  _19
REMARK    6  A    between atoms: _19  and  _20
REMARK    7  A    between atoms: _19  and  _22
REMARK    8  A    between atoms: _22  and  _23
REMARK    9  A    between atoms: _28  and  _29
REMARK   10  A    between atoms: _31  and  _33
REMARK   11  A    between atoms: _33  and  _34
REMARK   12  A    between atoms: _33  and  _36
REMARK   13  A    between atoms: _36  and  _37
REMARK   14  A    between atoms: _39  and  _41
REMARK   15  A    between atoms: _41  and  _42
REMARK   16  A    between atoms: _41  and  _44
REMARK   17  A    between atoms: _44  and  _45
REMARK   18  A    between atoms: _50  and  _52
REMARK   19  A    between atoms: _52  and  _53
REMARK   20  A    between atoms: _52  and  _55
REMARK   21  A    between atoms: _55  and  _56
REMARK   22  A    between atoms: _61  and  _63
REMARK   23  A    between atoms: _63  and  _64
REMARK   24  A    between atoms: _67  and  _69
REMARK   25  A    between atoms: _69  and  _70
REMARK   26  A    between atoms: _69  and  _72
REMARK   27  A    between atoms: _72  and  _73
REMARK   28  A    between atoms: _78  and  _80
REMARK   29  A    between atoms: _80  and  _81
REMARK   30  A    between atoms: _80  and  _83
REMARK   31  A    between atoms: _83  and  _84
REMARK   32  A    between atoms: _87  and  _89
REMARK   33  A    between atoms: _89  and  _90
REMARK   34  A    between atoms: _89  and  _92
REMARK   35  A    between atoms: _92  and  _93
REMARK   36  A    between atoms: _93  and  _94
REMARK   37  A    between atoms: _99  and  _101
REMARK   38  A    between atoms: _112  and  _115
REMARK   39  A    between atoms: _115  and  _116
REMARK   40  A    between atoms: _124  and  _125
REMARK   41  A    between atoms: _133  and  _135
REMARK   42  A    between atoms: _135  and  _136
REMARK   43  A    between atoms: _135  and  _138
REMARK   44  A    between atoms: _138  and  _139
REMARK   45  A    between atoms: _139  and  _140
REMARK   46  A    between atoms: _143  and  _145
REMARK   47  A    between atoms: _145  and  _146
REMARK   48  A    between atoms: _145  and  _148
REMARK   49  A    between atoms: _148  and  _149
REMARK   50  A    between atoms: _154  and  _156
REMARK   51  A    between atoms: _156  and  _157
REMARK   52  A    between atoms: _156  and  _159
REMARK   53  A    between atoms: _159  and  _160
REMARK   54  A    between atoms: _160  and  _161
REMARK   55  A    between atoms: _164  and  _166
REMARK   56  A    between atoms: _166  and  _167
REMARK   57  A    between atoms: _166  and  _169
REMARK   58  A    between atoms: _169  and  _170
REMARK   59  A    between atoms: _173  and  _175
REMARK   60  A    between atoms: _175  and  _176
REMARK   61  A    between atoms: _175  and  _178
REMARK   62  A    between atoms: _178  and  _179
REMARK   63  A    between atoms: _180  and  ZN_374
REMARK   64  A    between atoms: _184  and  _186
REMARK   65  A    between atoms: _186  and  _187
REMARK   66  A    between atoms: _186  and  _189
REMARK   67  A    between atoms: _189  and  _190
REMARK   68  A    between atoms: _193  and  _195
REMARK   69  A    between atoms: _195  and  _196
REMARK   70  A    between atoms: _195  and  _198
REMARK   71  A    between atoms: _201  and  _203
REMARK   72  A    between atoms: _203  and  _204
REMARK   73  A    between atoms: _203  and  _206
REMARK   74  A    between atoms: _206  and  _207
REMARK   75  A    between atoms: _212  and  _214
REMARK   76  A    between atoms: _214  and  _215
REMARK   77  A    between atoms: _214  and  _217
REMARK   78  A    between atoms: _217  and  _218
REMARK   79  A    between atoms: _224  and  _226
REMARK   80  A    between atoms: _226  and  _227
REMARK   81  A    between atoms: _226  and  _229
REMARK   82  A    between atoms: _232  and  _234
REMARK   83  A    between atoms: _234  and  _235
REMARK   84  A    between atoms: _234  and  _237
REMARK   85  A    between atoms: _237  and  _238
REMARK   86  A    between atoms: _241  and  _243
REMARK   87  A    between atoms: _243  and  _244
REMARK   88  A    between atoms: _247  and  _249
REMARK   89  A    between atoms: _249  and  _250
REMARK   90  A    between atoms: _249  and  _252
REMARK   91  A    between atoms: _255  and  _257
REMARK   92  A    between atoms: _257  and  _258
REMARK   93  A    between atoms: _257  and  _260
REMARK   94  A    between atoms: _260  and  _261
REMARK   95  A    between atoms: _263  and  _265
REMARK   96  A    between atoms: _265  and  _266
REMARK   97  A    between atoms: _265  and  _268
REMARK   98  A    between atoms: _268  and  _269
REMARK   99  A    between atoms: _272  and  _274
REMARK  100  A    between atoms: _274  and  _275
REMARK  101  A    between atoms: _274  and  _277
REMARK  102  A    between atoms: _277  and  _278
REMARK  103  A    between atoms: _281  and  _283
REMARK  104  A    between atoms: _283  and  _284
REMARK  105  A    between atoms: _283  and  _286
REMARK  106  A    between atoms: _286  and  _287
REMARK  107  A    between atoms: _291  and  _292
REMARK  108  A    between atoms: _298  and  _299
REMARK  109  A    between atoms: _304  and  _306
REMARK  110  A    between atoms: _306  and  _307
REMARK  111  A    between atoms: _306  and  _309
REMARK  112  A    between atoms: _309  and  _310
REMARK  113  A    between atoms: _313  and  _315
REMARK  114  A    between atoms: _315  and  _316
REMARK  115  A    between atoms: _315  and  _318
REMARK  116  A    between atoms: _318  and  _319
REMARK  117  A    between atoms: _322  and  _324
REMARK  118  A    between atoms: _324  and  _325
REMARK  119  A    between atoms: _324  and  _327
REMARK  120  A    between atoms: _330  and  _332
REMARK  121  A    between atoms: _332  and  _333
REMARK  122  A    between atoms: _332  and  _335
REMARK  123  A    between atoms: _335  and  _336
REMARK  124  A    between atoms: _346  and  _348
REMARK  125  A    between atoms: _348  and  _349
REMARK  126  A    between atoms: _348  and  _351
REMARK  127  A    between atoms: _351  and  _352
REMARK  128  A    between atoms: _357  and  _359
REMARK  129  A    between atoms: _359  and  _360
REMARK  130  A    between atoms: _359  and  _362
REMARK  131  A    between atoms: _362  and  _363
REMARK  132  A    between atoms: _363  and  _364
REMARK  133  A    between atoms: _364  and  _365
REMARK                            x       y       z     vdW  Elec       q    Type
REMARK                         _______ _______ _______ _____ _____    ______ ____
ROOT
ATOM      1  O   HOH     1      15.361   1.476  10.750  0.00  0.00    +0.000 OA
ENDROOT
TORSDOF 0
REMARK  Name = ../refined-set-2016/4q7v/4q7v_pocket.pdb
REMARK  133 active torsions:
REMARK  status: ('A' for Active; 'I' for Inactive)
REMARK    1  A    between atoms: _1  and  _3
REMARK    2  A    between atoms: _3  and  _4
REMARK    3  A    between atoms: _3  and  _6
REMARK    4  A    between atoms: _6  and  _7
REMARK    5  A    between atoms: _17  and  _19
REMARK    6  A    between atoms: _19  and  _20
REMARK    7  A    between atoms: _19  and  _22
REMARK    8  A    between atoms: _22  and  _23
REMARK    9  A    between atoms: _28  and  _29
REMARK   10  A    between atoms: _31  and  _33
REMARK   11  A    between atoms: _33  and  _34
REMARK   12  A    between atoms: _33  and  _36
REMARK   13  A    between atoms: _36  and  _37
REMARK   14  A    between atoms: _39  and  _41
REMARK   15  A    between atoms: _41  and  _42
REMARK   16  A    between atoms: _41  and  _44
REMARK   17  A    between atoms: _44  and  _45
REMARK   18  A    between atoms: _50  and  _52
REMARK   19  A    between atoms: _52  and  _53
REMARK   20  A    between atoms: _52  and  _55
REMARK   21  A    between atoms: _55  and  _56
REMARK   22  A    between atoms: _61  and  _63
REMARK   23  A    between atoms: _63  and  _64
REMARK   24  A    between atoms: _67  and  _69
REMARK   25  A    between atoms: _69  and  _70
REMARK   26  A    between atoms: _69  and  _72
REMARK   27  A    between atoms: _72  and  _73
REMARK   28  A    between atoms: _78  and  _80
REMARK   29  A    between atoms: _80  and  _81
REMARK   30  A    between atoms: _80  and  _83
REMARK   31  A    between atoms: _83  and  _84
REMARK   32  A    between atoms: _87  and  _89
REMARK   33  A    between atoms: _89  and  _90
REMARK   34  A    between atoms: _89  and  _92
REMARK   35  A    between atoms: _92  and  _93
REMARK   36  A    between atoms: _93  and  _94
REMARK   37  A    between atoms: _99  and  _101
REMARK   38  A    between atoms: _112  and  _115
REMARK   39  A    between atoms: _115  and  _116
REMARK   40  A    between atoms: _124  and  _125
REMARK   41  A    between atoms: _133  and  _135
REMARK   42  A    between atoms: _135  and  _136
REMARK   43  A    between atoms: _135  and  _138
REMARK   44  A    between atoms: _138  and  _139
REMARK   45  A    between atoms: _139  and  _140
REMARK   46  A    between atoms: _143  and  _145
REMARK   47  A    between atoms: _145  and  _146
REMARK   48  A    between atoms: _145  and  _148
REMARK   49  A    between atoms: _148  and  _149
REMARK   50  A    between atoms: _154  and  _156
REMARK   51  A    between atoms: _156  and  _157
REMARK   52  A    between atoms: _156  and  _159
REMARK   53  A    between atoms: _159  and  _160
REMARK   54  A    between atoms: _160  and  _161
REMARK   55  A    between atoms: _164  and  _166
REMARK   56  A    between atoms: _166  and  _167
REMARK   57  A    between atoms: _166  and  _169
REMARK   58  A    between atoms: _169  and  _170
REMARK   59  A    between atoms: _173  and  _175
REMARK   60  A    between atoms: _175  and  _176
REMARK   61  A    between atoms: _175  and  _178
REMARK   62  A    between atoms: _178  and  _179
REMARK   63  A    between atoms: _180  and  ZN_374
REMARK   64  A    between atoms: _184  and  _186
REMARK   65  A    between atoms: _186  and  _187
REMARK   66  A    between atoms: _186  and  _189
REMARK   67  A    between atoms: _189  and  _190
REMARK   68  A    between atoms: _193  and  _195
REMARK   69  A    between atoms: _195  and  _196
REMARK   70  A    between atoms: _195  and  _198
REMARK   71  A    between atoms: _201  and  _203
REMARK   72  A    between atoms: _203  and  _204
REMARK   73  A    between atoms: _203  and  _206
REMARK   74  A    between atoms: _206  and  _207
REMARK   75  A    between atoms: _212  and  _214
REMARK   76  A    between atoms: _214  and  _215
REMARK   77  A    between atoms: _214  and  _217
REMARK   78  A    between atoms: _217  and  _218
REMARK   79  A    between atoms: _224  and  _226
REMARK   80  A    between atoms: _226  and  _227
REMARK   81  A    between atoms: _226  and  _229
REMARK   82  A    between atoms: _232  and  _234
REMARK   83  A    between atoms: _234  and  _235
REMARK   84  A    between atoms: _234  and  _237
REMARK   85  A    between atoms: _237  and  _238
REMARK   86  A    between atoms: _241  and  _243
REMARK   87  A    between atoms: _243  and  _244
REMARK   88  A    between atoms: _247  and  _249
REMARK   89  A    between atoms: _249  and  _250
REMARK   90  A    between atoms: _249  and  _252
REMARK   91  A    between atoms: _255  and  _257
REMARK   92  A    between atoms: _257  and  _258
REMARK   93  A    between atoms: _257  and  _260
REMARK   94  A    between atoms: _260  and  _261
REMARK   95  A    between atoms: _263  and  _265
REMARK   96  A    between atoms: _265  and  _266
REMARK   97  A    between atoms: _265  and  _268
REMARK   98  A    between atoms: _268  and  _269
REMARK   99  A    between atoms: _272  and  _274
REMARK  100  A    between atoms: _274  and  _275
REMARK  101  A    between atoms: _274  and  _277
REMARK  102  A    between atoms: _277  and  _278
REMARK  103  A    between atoms: _281  and  _283
REMARK  104  A    between atoms: _283  and  _284
REMARK  105  A    between atoms: _283  and  _286
REMARK  106  A    between atoms: _286  and  _287
REMARK  107  A    between atoms: _291  and  _292
REMARK  108  A    between atoms: _298  and  _299
REMARK  109  A    between atoms: _304  and  _306
REMARK  110  A    between atoms: _306  and  _307
REMARK  111  A    between atoms: _306  and  _309
REMARK  112  A    between atoms: _309  and  _310
REMARK  113  A    between atoms: _313  and  _315
REMARK  114  A    between atoms: _315  and  _316
REMARK  115  A    between atoms: _315  and  _318
REMARK  116  A    between atoms: _318  and  _319
REMARK  117  A    between atoms: _322  and  _324
REMARK  118  A    between atoms: _324  and  _325
REMARK  119  A    between atoms: _324  and  _327
REMARK  120  A    between atoms: _330  and  _332
REMARK  121  A    between atoms: _332  and  _333
REMARK  122  A    between atoms: _332  and  _335
REMARK  123  A    between atoms: _335  and  _336
REMARK  124  A    between atoms: _346  and  _348
REMARK  125  A    between atoms: _348  and  _349
REMARK  126  A    between atoms: _348  and  _351
REMARK  127  A    between atoms: _351  and  _352
REMARK  128  A    between atoms: _357  and  _359
REMARK  129  A    between atoms: _359  and  _360
REMARK  130  A    between atoms: _359  and  _362
REMARK  131  A    between atoms: _362  and  _363
REMARK  132  A    between atoms: _363  and  _364
REMARK  133  A    between atoms: _364  and  _365
REMARK                            x       y       z     vdW  Elec       q    Type
REMARK                         _______ _______ _______ _____ _____    ______ ____
ROOT
ATOM      1  O   HOH     1      16.959   3.504  10.239  0.00  0.00    +0.000 OA
ENDROOT
TORSDOF 0
REMARK  Name = ../refined-set-2016/4q7v/4q7v_pocket.pdb
REMARK  133 active torsions:
REMARK  status: ('A' for Active; 'I' for Inactive)
REMARK    1  A    between atoms: _1  and  _3
REMARK    2  A    between atoms: _3  and  _4
REMARK    3  A    between atoms: _3  and  _6
REMARK    4  A    between atoms: _6  and  _7
REMARK    5  A    between atoms: _17  and  _19
REMARK    6  A    between atoms: _19  and  _20
REMARK    7  A    between atoms: _19  and  _22
REMARK    8  A    between atoms: _22  and  _23
REMARK    9  A    between atoms: _28  and  _29
REMARK   10  A    between atoms: _31  and  _33
REMARK   11  A    between atoms: _33  and  _34
REMARK   12  A    between atoms: _33  and  _36
REMARK   13  A    between atoms: _36  and  _37
REMARK   14  A    between atoms: _39  and  _41
REMARK   15  A    between atoms: _41  and  _42
REMARK   16  A    between atoms: _41  and  _44
REMARK   17  A    between atoms: _44  and  _45
REMARK   18  A    between atoms: _50  and  _52
REMARK   19  A    between atoms: _52  and  _53
REMARK   20  A    between atoms: _52  and  _55
REMARK   21  A    between atoms: _55  and  _56
REMARK   22  A    between atoms: _61  and  _63
REMARK   23  A    between atoms: _63  and  _64
REMARK   24  A    between atoms: _67  and  _69
REMARK   25  A    between atoms: _69  and  _70
REMARK   26  A    between atoms: _69  and  _72
REMARK   27  A    between atoms: _72  and  _73
REMARK   28  A    between atoms: _78  and  _80
REMARK   29  A    between atoms: _80  and  _81
REMARK   30  A    between atoms: _80  and  _83
REMARK   31  A    between atoms: _83  and  _84
REMARK   32  A    between atoms: _87  and  _89
REMARK   33  A    between atoms: _89  and  _90
REMARK   34  A    between atoms: _89  and  _92
REMARK   35  A    between atoms: _92  and  _93
REMARK   36  A    between atoms: _93  and  _94
REMARK   37  A    between atoms: _99  and  _101
REMARK   38  A    between atoms: _112  and  _115
REMARK   39  A    between atoms: _115  and  _116
REMARK   40  A    between atoms: _124  and  _125
REMARK   41  A    between atoms: _133  and  _135
REMARK   42  A    between atoms: _135  and  _136
REMARK   43  A    between atoms: _135  and  _138
REMARK   44  A    between atoms: _138  and  _139
REMARK   45  A    between atoms: _139  and  _140
REMARK   46  A    between atoms: _143  and  _145
REMARK   47  A    between atoms: _145  and  _146
REMARK   48  A    between atoms: _145  and  _148
REMARK   49  A    between atoms: _148  and  _149
REMARK   50  A    between atoms: _154  and  _156
REMARK   51  A    between atoms: _156  and  _157
REMARK   52  A    between atoms: _156  and  _159
REMARK   53  A    between atoms: _159  and  _160
REMARK   54  A    between atoms: _160  and  _161
REMARK   55  A    between atoms: _164  and  _166
REMARK   56  A    between atoms: _166  and  _167
REMARK   57  A    between atoms: _166  and  _169
REMARK   58  A    between atoms: _169  and  _170
REMARK   59  A    between atoms: _173  and  _175
REMARK   60  A    between atoms: _175  and  _176
REMARK   61  A    between atoms: _175  and  _178
REMARK   62  A    between atoms: _178  and  _179
REMARK   63  A    between atoms: _180  and  ZN_374
REMARK   64  A    between atoms: _184  and  _186
REMARK   65  A    between atoms: _186  and  _187
REMARK   66  A    between atoms: _186  and  _189
REMARK   67  A    between atoms: _189  and  _190
REMARK   68  A    between atoms: _193  and  _195
REMARK   69  A    between atoms: _195  and  _196
REMARK   70  A    between atoms: _195  and  _198
REMARK   71  A    between atoms: _201  and  _203
REMARK   72  A    between atoms: _203  and  _204
REMARK   73  A    between atoms: _203  and  _206
REMARK   74  A    between atoms: _206  and  _207
REMARK   75  A    between atoms: _212  and  _214
REMARK   76  A    between atoms: _214  and  _215
REMARK   77  A    between atoms: _214  and  _217
REMARK   78  A    between atoms: _217  and  _218
REMARK   79  A    between atoms: _224  and  _226
REMARK   80  A    between atoms: _226  and  _227
REMARK   81  A    between atoms: _226  and  _229
REMARK   82  A    between atoms: _232  and  _234
REMARK   83  A    between atoms: _234  and  _235
REMARK   84  A    between atoms: _234  and  _237
REMARK   85  A    between atoms: _237  and  _238
REMARK   86  A    between atoms: _241  and  _243
REMARK   87  A    between atoms: _243  and  _244
REMARK   88  A    between atoms: _247  and  _249
REMARK   89  A    between atoms: _249  and  _250
REMARK   90  A    between atoms: _249  and  _252
REMARK   91  A    between atoms: _255  and  _257
REMARK   92  A    between atoms: _257  and  _258
REMARK   93  A    between atoms: _257  and  _260
REMARK   94  A    between atoms: _260  and  _261
REMARK   95  A    between atoms: _263  and  _265
REMARK   96  A    between atoms: _265  and  _266
REMARK   97  A    between atoms: _265  and  _268
REMARK   98  A    between atoms: _268  and  _269
REMARK   99  A    between atoms: _272  and  _274
REMARK  100  A    between atoms: _274  and  _275
REMARK  101  A    between atoms: _274  and  _277
REMARK  102  A    between atoms: _277  and  _278
REMARK  103  A    between atoms: _281  and  _283
REMARK  104  A    between atoms: _283  and  _284
REMARK  105  A    between atoms: _283  and  _286
REMARK  106  A    between atoms: _286  and  _287
REMARK  107  A    between atoms: _291  and  _292
REMARK  108  A    between atoms: _298  and  _299
REMARK  109  A    between atoms: _304  and  _306
REMARK  110  A    between atoms: _306  and  _307
REMARK  111  A    between atoms: _306  and  _309
REMARK  112  A    between atoms: _309  and  _310
REMARK  113  A    between atoms: _313  and  _315
REMARK  114  A    between atoms: _315  and  _316
REMARK  115  A    between atoms: _315  and  _318
REMARK  116  A    between atoms: _318  and  _319
REMARK  117  A    between atoms: _322  and  _324
REMARK  118  A    between atoms: _324  and  _325
REMARK  119  A    between atoms: _324  and  _327
REMARK  120  A    between atoms: _330  and  _332
REMARK  121  A    between atoms: _332  and  _333
REMARK  122  A    between atoms: _332  and  _335
REMARK  123  A    between atoms: _335  and  _336
REMARK  124  A    between atoms: _346  and  _348
REMARK  125  A    between atoms: _348  and  _349
REMARK  126  A    between atoms: _348  and  _351
REMARK  127  A    between atoms: _351  and  _352
REMARK  128  A    between atoms: _357  and  _359
REMARK  129  A    between atoms: _359  and  _360
REMARK  130  A    between atoms: _359  and  _362
REMARK  131  A    between atoms: _362  and  _363
REMARK  132  A    between atoms: _363  and  _364
REMARK  133  A    between atoms: _364  and  _365
REMARK                            x       y       z     vdW  Elec       q    Type
REMARK                         _______ _______ _______ _____ _____    ______ ____
ROOT
ATOM      1  O   HOH     1      18.805  -0.144  10.266  0.00  0.00    +0.000 OA
ENDROOT
TORSDOF 0
REMARK  Name = ../refined-set-2016/4q7v/4q7v_pocket.pdb
REMARK  133 active torsions:
REMARK  status: ('A' for Active; 'I' for Inactive)
REMARK    1  A    between atoms: _1  and  _3
REMARK    2  A    between atoms: _3  and  _4
REMARK    3  A    between atoms: _3  and  _6
REMARK    4  A    between atoms: _6  and  _7
REMARK    5  A    between atoms: _17  and  _19
REMARK    6  A    between atoms: _19  and  _20
REMARK    7  A    between atoms: _19  and  _22
REMARK    8  A    between atoms: _22  and  _23
REMARK    9  A    between atoms: _28  and  _29
REMARK   10  A    between atoms: _31  and  _33
REMARK   11  A    between atoms: _33  and  _34
REMARK   12  A    between atoms: _33  and  _36
REMARK   13  A    between atoms: _36  and  _37
REMARK   14  A    between atoms: _39  and  _41
REMARK   15  A    between atoms: _41  and  _42
REMARK   16  A    between atoms: _41  and  _44
REMARK   17  A    between atoms: _44  and  _45
REMARK   18  A    between atoms: _50  and  _52
REMARK   19  A    between atoms: _52  and  _53
REMARK   20  A    between atoms: _52  and  _55
REMARK   21  A    between atoms: _55  and  _56
REMARK   22  A    between atoms: _61  and  _63
REMARK   23  A    between atoms: _63  and  _64
REMARK   24  A    between atoms: _67  and  _69
REMARK   25  A    between atoms: _69  and  _70
REMARK   26  A    between atoms: _69  and  _72
REMARK   27  A    between atoms: _72  and  _73
REMARK   28  A    between atoms: _78  and  _80
REMARK   29  A    between atoms: _80  and  _81
REMARK   30  A    between atoms: _80  and  _83
REMARK   31  A    between atoms: _83  and  _84
REMARK   32  A    between atoms: _87  and  _89
REMARK   33  A    between atoms: _89  and  _90
REMARK   34  A    between atoms: _89  and  _92
REMARK   35  A    between atoms: _92  and  _93
REMARK   36  A    between atoms: _93  and  _94
REMARK   37  A    between atoms: _99  and  _101
REMARK   38  A    between atoms: _112  and  _115
REMARK   39  A    between atoms: _115  and  _116
REMARK   40  A    between atoms: _124  and  _125
REMARK   41  A    between atoms: _133  and  _135
REMARK   42  A    between atoms: _135  and  _136
REMARK   43  A    between atoms: _135  and  _138
REMARK   44  A    between atoms: _138  and  _139
REMARK   45  A    between atoms: _139  and  _140
REMARK   46  A    between atoms: _143  and  _145
REMARK   47  A    between atoms: _145  and  _146
REMARK   48  A    between atoms: _145  and  _148
REMARK   49  A    between atoms: _148  and  _149
REMARK   50  A    between atoms: _154  and  _156
REMARK   51  A    between atoms: _156  and  _157
REMARK   52  A    between atoms: _156  and  _159
REMARK   53  A    between atoms: _159  and  _160
REMARK   54  A    between atoms: _160  and  _161
REMARK   55  A    between atoms: _164  and  _166
REMARK   56  A    between atoms: _166  and  _167
REMARK   57  A    between atoms: _166  and  _169
REMARK   58  A    between atoms: _169  and  _170
REMARK   59  A    between atoms: _173  and  _175
REMARK   60  A    between atoms: _175  and  _176
REMARK   61  A    between atoms: _175  and  _178
REMARK   62  A    between atoms: _178  and  _179
REMARK   63  A    between atoms: _180  and  ZN_374
REMARK   64  A    between atoms: _184  and  _186
REMARK   65  A    between atoms: _186  and  _187
REMARK   66  A    between atoms: _186  and  _189
REMARK   67  A    between atoms: _189  and  _190
REMARK   68  A    between atoms: _193  and  _195
REMARK   69  A    between atoms: _195  and  _196
REMARK   70  A    between atoms: _195  and  _198
REMARK   71  A    between atoms: _201  and  _203
REMARK   72  A    between atoms: _203  and  _204
REMARK   73  A    between atoms: _203  and  _206
REMARK   74  A    between atoms: _206  and  _207
REMARK   75  A    between atoms: _212  and  _214
REMARK   76  A    between atoms: _214  and  _215
REMARK   77  A    between atoms: _214  and  _217
REMARK   78  A    between atoms: _217  and  _218
REMARK   79  A    between atoms: _224  and  _226
REMARK   80  A    between atoms: _226  and  _227
REMARK   81  A    between atoms: _226  and  _229
REMARK   82  A    between atoms: _232  and  _234
REMARK   83  A    between atoms: _234  and  _235
REMARK   84  A    between atoms: _234  and  _237
REMARK   85  A    between atoms: _237  and  _238
REMARK   86  A    between atoms: _241  and  _243
REMARK   87  A    between atoms: _243  and  _244
REMARK   88  A    between atoms: _247  and  _249
REMARK   89  A    between atoms: _249  and  _250
REMARK   90  A    between atoms: _249  and  _252
REMARK   91  A    between atoms: _255  and  _257
REMARK   92  A    between atoms: _257  and  _258
REMARK   93  A    between atoms: _257  and  _260
REMARK   94  A    between atoms: _260  and  _261
REMARK   95  A    between atoms: _263  and  _265
REMARK   96  A    between atoms: _265  and  _266
REMARK   97  A    between atoms: _265  and  _268
REMARK   98  A    between atoms: _268  and  _269
REMARK   99  A    between atoms: _272  and  _274
REMARK  100  A    between atoms: _274  and  _275
REMARK  101  A    between atoms: _274  and  _277
REMARK  102  A    between atoms: _277  and  _278
REMARK  103  A    between atoms: _281  and  _283
REMARK  104  A    between atoms: _283  and  _284
REMARK  105  A    between atoms: _283  and  _286
REMARK  106  A    between atoms: _286  and  _287
REMARK  107  A    between atoms: _291  and  _292
REMARK  108  A    between atoms: _298  and  _299
REMARK  109  A    between atoms: _304  and  _306
REMARK  110  A    between atoms: _306  and  _307
REMARK  111  A    between atoms: _306  and  _309
REMARK  112  A    between atoms: _309  and  _310
REMARK  113  A    between atoms: _313  and  _315
REMARK  114  A    between atoms: _315  and  _316
REMARK  115  A    between atoms: _315  and  _318
REMARK  116  A    between atoms: _318  and  _319
REMARK  117  A    between atoms: _322  and  _324
REMARK  118  A    between atoms: _324  and  _325
REMARK  119  A    between atoms: _324  and  _327
REMARK  120  A    between atoms: _330  and  _332
REMARK  121  A    between atoms: _332  and  _333
REMARK  122  A    between atoms: _332  and  _335
REMARK  123  A    between atoms: _335  and  _336
REMARK  124  A    between atoms: _346  and  _348
REMARK  125  A    between atoms: _348  and  _349
REMARK  126  A    between atoms: _348  and  _351
REMARK  127  A    between atoms: _351  and  _352
REMARK  128  A    between atoms: _357  and  _359
REMARK  129  A    between atoms: _359  and  _360
REMARK  130  A    between atoms: _359  and  _362
REMARK  131  A    between atoms: _362  and  _363
REMARK  132  A    between atoms: _363  and  _364
REMARK  133  A    between atoms: _364  and  _365
REMARK                            x       y       z     vdW  Elec       q    Type
REMARK                         _______ _______ _______ _____ _____    ______ ____
ROOT
ATOM      1  O   HOH     1      12.835   7.560   8.287  0.00  0.00    +0.000 OA
ENDROOT
TORSDOF 0
